*SOILS : Maricopa Agricultural Center, Maricopa, Phoenix, Arizona

*AZMC920001  KIMBALL     CL      210 TRIX CLAY LOAM
@SITE        COUNTRY          LAT     LONG SCS FAMILY
 MARICOPA    USA            33.050 112.000 FINE-LOAMY, MIXED (CALCAREOUS), HYPERTHERMIC TYPIC
@ SCOM  SALB  SLU1  SLDR  SLRO  SLNF  SLPF  SMHB  SMPX  SMKE
   -99  0.20  12.0  0.29  70.0  1.00  0.90   -99   -99   -99
@  SLB  SLMH  SLLL  SDUL  SSAT  SRGF  SSKS  SBDM  SLOC  SLCL  SLSI  SLCF  SLNI  SLHW  SLHB  SCEC  SADC
     5    AP 0.202 0.320 0.417 1.000  4.30  1.31  0.41  34.0  31.0   0.0   -99   8.5   -99  25.5   -99 
    15    AP 0.201 0.319 0.424 0.741  4.30  1.27  0.35  34.0  31.0   0.0   -99   8.5   -99  25.5   -99 
    30    AP 0.199 0.319 0.424 0.607  4.30  1.27  0.27  34.0  31.0   0.0   -99   8.5   -99  25.5   -99 
    50    C1 0.198 0.318 0.419 0.449  4.30  1.30  0.24  34.0  31.0   0.0   -99   8.6   -99  24.5   -99 
    60    C1 0.198 0.318 0.387 0.301  4.30  1.47  0.16  34.0  31.0   0.0   -99   8.6   -99  23.5   -99 
    70    C1 0.198 0.318 0.387 0.301  4.30  1.47  0.16  34.0  31.0   0.0   -99   8.6   -99  23.5   -99 
    90    C2 0.186 0.299 0.359 0.183  4.30  1.57  0.30  30.0  25.0   0.0   -99   8.6   -99  20.7   -99 
   110    C2 0.159 0.275 0.347 0.100  4.30  1.57  0.10  25.0  20.0   0.0   -99   8.6   -99  17.3   -99 
   120    C2 0.159 0.275 0.347 0.100  4.30  1.57  0.10  25.0  20.0   0.0   -99   8.6   -99  17.3   -99 
   130    C2 0.159 0.275 0.347 0.100  4.30  1.57  0.10  25.0  20.0   0.0   -99   8.6   -99  17.3   -99 
   150    C2 0.136 0.254 0.336 0.055  4.30  1.57  0.00  20.0  20.0   0.0   -99   8.6   -99  13.8   -99 
   170    C2 0.136 0.254 0.336 0.000  4.30  1.57  0.00  20.0  20.0   0.0   -99   8.6   -99  13.8   -99 
   190    C2 0.128 0.244 0.331 0.000  4.30  1.57  0.00  18.0  17.0   0.0   -99   8.6   -99  12.4   -99 
   210    C2 0.128 0.244 0.331 0.000  4.30  1.57  0.00  18.0  17.0   0.0   -99   8.6   -99  12.4   -99 
