*SOILS : Carrington Research Extension Center, Carrington, ND, USA

*CREC002014  -99         -99      152  CREC soil
@SITE        COUNTRY          LAT     LONG SCS FAMILY
 CREC        US             47.449 -99.124 -99
@ SCOM  SALB  SLU1  SLDR  SLRO  SLNF  SLPF  SMHB  SMPX  SMKE
   -99   .09   9.8    .4    84    .5     1 IB001 IB001 IB001
@  SLB  SLMH  SLLL  SDUL  SSAT  SRGF  SSKS  SBDM  SLOC  SLCL  SLSI  SLCF  SLNI  SLHW  SLHB  SCEC  SADC
     5   -99   .11    .3  .361     1   3.3  1.45  2.03   -99   -99   -99   -99   6.4   -99   -99   -99
    18   -99   .11    .3  .361     1   3.3  1.45  2.03   -99   -99   -99   -99   6.4   -99   -99   -99
    31   -99   .11    .3  .361     1   3.3  1.45  2.03   -99   -99   -99   -99   6.4   -99   -99   -99
    46   -99   .11    .3  .361     1   3.3  1.45  2.03   -99   -99   -99   -99   6.4   -99   -99   -99
    56   -99  .129   .31  .371     1   3.3   1.6   .44   -99   -99   -99   -99   6.7   -99   -99   -99
    66   -99  .129   .31  .371     1   3.3   1.6   .44   -99   -99   -99   -99   6.7   -99   -99   -99
    91   -99  .129   .31  .371    .5   3.3   1.6   .44   -99   -99   -99   -99   6.7   -99   -99   -99
   111   -99  .107  .229  .369    .5   3.3   1.6   .15   -99   -99   -99   -99   7.9   -99   -99   -99
   132   -99  .107  .229  .369    .5   3.3   1.6   .15   -99   -99   -99   -99   7.9   -99   -99   -99
   152   -99  .107  .229  .369    .5   3.3   1.6   .15   -99   -99   -99   -99   7.9   -99   -99   -99
