*SOILS: DSSAT Soil Input File

*DITY000001  complemente S        200  Sand
@SITE        COUNTRY          LAT     LONG SCS FAMILY
 -99         Denmark           -99     -99 99
@ SCOM  SALB  SLU1  SLDR  SLRO  SLNF  SLPF  SMHB  SMPX  SMKE
   -99   .13   5.6    .6    64     1     1   -99   -99   -99
@  SLB  SLMH  SLLL  SDUL  SSAT  SRGF  SSKS  SBDM  SLOC  SLCL  SLSI  SLCF  SLNI  SLHW  SLHB  SCEC  SADC
     3   -99  .036  .156  .456     1 14.47  1.31   1.7   3.9   4.1   -99   -99   -99   -99   -99   -99
    68   -99  .021   .09  .374   .49 38.18  1.58   .12     2     2   -99   -99   -99   -99   -99   -99
   130   -99  .021   .09  .364   .14  35.6  1.61   .06     2     2   -99   -99   -99   -99   -99   -99
   200   -99  .021   .09  .392   .04 42.89  1.53   .06     2     2   -99   -99   -99   -99   -99   -99

*DIJY000001  complemente S        200  Sand
@SITE        COUNTRY          LAT     LONG SCS FAMILY
 -99         Denmark           -99     -99 99
@ SCOM  SALB  SLU1  SLDR  SLRO  SLNF  SLPF  SMHB  SMPX  SMKE
   -99   .13   5.6    .6    64     1     1   -99   -99   -99
@  SLB  SLMH  SLLL  SDUL  SSAT  SRGF  SSKS  SBDM  SLOC  SLCL  SLSI  SLCF  SLNI  SLHW  SLHB  SCEC  SADC
     3   -99  .036  .156  .456     1 14.47  1.31   1.9   3.7   6.2   -99   -99   -99   -99   -99   -99
    68   -99  .021   .09  .374   .49 38.18  1.58   1.9   3.7   6.2   -99   -99   -99   -99   -99   -99
   130   -99  .021   .09  .364   .14  35.6  1.61   .06     2     2   -99   -99   -99   -99   -99   -99
   200   -99  .021   .09  .392   .04 42.89  1.53   .06     2     2   -99   -99   -99   -99   -99   -99

*DIJY000002  -99         S        150  Sand
@SITE        COUNTRY          LAT     LONG SCS FAMILY
 Jyndevad    Denmark          54.9    9.13 -99
@ SCOM  SALB  SLU1  SLDR  SLRO  SLNF  SLPF  SMHB  SMPX  SMKE
     G   .13     6    .5    61     1     1 IB001 IB001 IB001
@  SLB  SLMH  SLLL  SDUL  SSAT  SRGF  SSKS  SBDM  SLOC  SLCL  SLSI  SLCF  SLNI  SLHW  SLHB  SCEC  SADC
     5   -99  .097  .186  .47     1    21   1.3   1.9   3.9   4.1   -99   -99   -99   -99   -99   -99
    30   -99  .097  .186  .47     1    21   1.3   1.9   3.9   4.1   -99   -99   -99   -99   -99   -99
    60   -99  .086  .165  .455  .407    21  1.35   1.5   3.9   4.1   -99   -99   -99   -99   -99   -99
   150   -99  .073  .139  .437  .122    21  1.41     1   3.9   4.1   -99   -99   -99   -99   -99   -99

*DITY000002  -99         S        150  Sand
@SITE        COUNTRY          LAT     LONG SCS FAMILY
 Tylstrup    Denmark         57.19    9.95 -99
@ SCOM  SALB  SLU1  SLDR  SLRO  SLNF  SLPF  SMHB  SMPX  SMKE
     G   .13     6    .6    61     1     1 IB001 IB001 IB001
@  SLB  SLMH  SLLL  SDUL  SSAT  SRGF  SSKS  SBDM  SLOC  SLCL  SLSI  SLCF  SLNI  SLHW  SLHB  SCEC  SADC
     5   -99  .091  .178  .464     1    21  1.32   1.7   3.7   6.2   -99   -99   -99   -99   -99   -99
    30   -99  .091  .178  .464     1    21  1.32   1.7   3.7   6.2   -99   -99   -99   -99   -99   -99
    60   -99  .091  .178  .464  .407    21  1.32   1.7   3.7   6.2   -99   -99   -99   -99   -99   -99
   150   -99  .091  .178  .464  .122    21  1.32   1.7   3.7   6.2   -99   -99   -99   -99   -99   -99

*DITT000001  -99         SL       150  Sand
@SITE        COUNTRY          LAT     LONG SCS FAMILY
 00          -99                54       9 -99
@ SCOM  SALB  SLU1  SLDR  SLRO  SLNF  SLPF  SMHB  SMPX  SMKE
    BN   .13     6    .4    61     1     1 IB001 IB001 IB001
@  SLB  SLMH  SLLL  SDUL  SSAT  SRGF  SSKS  SBDM  SLOC  SLCL  SLSI  SLCF  SLNI  SLHW  SLHB  SCEC  SADC
     5   -99  .153  .243  .411     1  2.59  1.48     1    20    11   -99   -99   -99   -99   -99   -99
    60   -99  .128  .213  .408  .522  2.59  1.49     1    15    10   -99   -99   -99   -99   -99   -99
   150   -99  .078  .143  .433  .122    21  1.42     1     5     3   -99   -99   -99   -99   -99   -99
