*SOILS: Maricopa, AZ, USA;
! Waring: There is a variable [sl_source] with oversized content [USDA ARS, ALARC], only first 11 bits will be applied.
!The ACE ID is N/A.
!This soil data is used for the experiment of EEST8203_1.
!

*EEST820002  USDA ARS, A         200 NL, EEST soils
@SITE        COUNTRY          LAT     LONG SCS FAMILY
 EST         Netherland       52.6     5.6 Silty loam
@ SCOM  SALB  SLU1  SLDR  SLRO  SLNF  SLPF  SMHB  SMPX  SMKE
     R   .13     9    .4    30    1.     1   -99   -99   -99
@  SLB  SLMH  SLLL  SDUL  SSAT  SRGF  SSKS  SBDM  SLOC  SLCL  SLSI  SLCF  SLNI  SLHW  SLHB  SCEC  SADC
     5     A   .09   .34   .41    .4   -99   1.3     3   -99   -99   -99   -99     6   -99   -99   
    10     A   .09   .34   .41    .4   -99   1.3     3   -99   -99   -99   -99     6   -99   -99   
    20     A   .09   .34   .41    .4   -99   1.3     3   -99   -99   -99   -99     6   -99   -99   
    30     A    .1   .34    .5    .4   -99   1.3     3   -99   -99   -99   -99     6   -99   -99   
    40     A   .12   .35    .5    .4   -99   1.1     2   -99   -99   -99   -99     6   -99   -99   
    60     A   .14   .37   .52    .4   -99   1.1     2   -99   -99   -99   -99     6   -99   -99   
    80     A   .14   .39   .52    .4   -99     1   1.8   -99   -99   -99   -99     6   -99   -99   
   100     A   .14   .39   .52    .4   -99     1   1.8   -99   -99   -99   -99     6   -99   -99   
   130     A   .14   .39   .52    .1   -99     1     1   -99   -99   -99   -99     6   -99   -99   
   200     A   .14   .39   .52    .1   -99     1     1   -99   -99   -99   -99     6   -99   -99   
