*SOILS: General DSSAT Soil Input File

*IZBG160001  NSRI        SCL       55  ABERFORD
@SITE        COUNTRY          LAT     LONG SCS FAMILY
 BG          UK            53.5455 -1.1877 medium loamy material over lithoskeletal limestone
@ SCOM  SALB  SLU1  SLDR  SLRO  SLNF  SLPF  SMHB  SMPX  SMKE
    BN   .13     6    .6    73     1     1 IB001 IB001 IB001
@  SLB  SLMH  SLLL  SDUL  SSAT  SRGF  SSKS  SBDM  SLOC  SLCL  SLSI  SLCF  SLNI  SLHW  SLHB  SCEC  SADC
    25     A  .235  .394  .494     1   3.2  1.22   2.7    27    23   -99   -99   7.4   -99   -99   -99
    55   Bw1  .255  .428  .501  .449   3.5  1.22   1.8    36    38   -99   -99   7.8   -99   -99   -99

*IZBG160002  NSRI        L         55  ABERFORD
@SITE        COUNTRY          LAT     LONG SCS FAMILY
 BG          UK             53.551   -1.21 medium loamy material over lithoskeletal limestone
@ SCOM  SALB  SLU1  SLDR  SLRO  SLNF  SLPF  SMHB  SMPX  SMKE
    BN   .13     6    .6    84     1     1 IB001 IB001 IB001
@  SLB  SLMH  SLLL  SDUL  SSAT  SRGF  SSKS  SBDM  SLOC  SLCL  SLSI  SLCF  SLNI  SLHW  SLHB  SCEC  SADC
    25     A  .228  .416  .492     1   3.2  1.22   2.7    27    36   -99   -99   7.4   -99   -99   -99
    55   Bw1  .227   .42    .5  .449   3.5  1.22   1.8    33    38   -99   -99   7.8   -99   -99   -99

*IZBG160003  NSRI        SICL     150  AGNEY
@SITE        COUNTRY          LAT     LONG SCS FAMILY
 BG          UK               52.8    0.21 medium silty marine alluvium
@ SCOM  SALB  SLU1  SLDR  SLRO  SLNF  SLPF  SMHB  SMPX  SMKE
    BN   .13     6    .4    73     1     1 IB001 IB001 IB001
@  SLB  SLMH  SLLL  SDUL  SSAT  SRGF  SSKS  SBDM  SLOC  SLCL  SLSI  SLCF  SLNI  SLHW  SLHB  SCEC  SADC
    25     A   .25   .45   .51     1   2.9  1.14   3.1    36    51   -99   -99   7.8   -99   -99   -99
    50   Bg1   .23   .38   .43  .472   1.9  1.39    .7    31    60   -99   -99     8   -99   -99   -99
    70   Bg2   .23   .39   .45  .301   2.3  1.34    .6    29    63   -99   -99   8.3   -99   -99   -99
   150    BC   .23    .4   .45  .111   2.7  1.32    .8    26    65   -99   -99   8.3   -99   -99   -99

*IZBG160004  NSRI        L        150  ASHLEY
@SITE        COUNTRY          LAT     LONG SCS FAMILY
 BG          UK             51.959  -1.082 medium loamy over clayey chalky drift
@ SCOM  SALB  SLU1  SLDR  SLRO  SLNF  SLPF  SMHB  SMPX  SMKE
    BN   .13     6    .4    84     1     1 IB001 IB001 IB001
@  SLB  SLMH  SLLL  SDUL  SSAT  SRGF  SSKS  SBDM  SLOC  SLCL  SLSI  SLCF  SLNI  SLHW  SLHB  SCEC  SADC
    25     A    .2   .37   .44     1   3.2  1.35   1.7    25    32   -99   -99   7.3   -99   -99   -99
    45     E   .22   .38   .44  .497   2.3  1.38    .5    28    38   -99   -99   7.5   -99   -99   -99
    60    Bt   .26   .39   .43   .35    .3  1.49    .5    39    32   -99   -99     8   -99   -99   -99
    80   Btg   .26   .38   .41  .247    .3  1.52    .4    43    33   -99   -99   8.4   -99   -99   -99
   150    BC   .22   .34   .37    .1    .3  1.63    .2    33    42   -99   -99   8.5   -99   -99   -99

*IZBG160005  NSRI        SCL       60  ASWARBY
@SITE        COUNTRY          LAT     LONG SCS FAMILY
 BG          UK             53.035  -0.451 medium loamy material over lithoskeletal limestone
@ SCOM  SALB  SLU1  SLDR  SLRO  SLNF  SLPF  SMHB  SMPX  SMKE
    BN   .13     6    .4    84     1     1 IB001 IB001 IB001
@  SLB  SLMH  SLLL  SDUL  SSAT  SRGF  SSKS  SBDM  SLOC  SLCL  SLSI  SLCF  SLNI  SLHW  SLHB  SCEC  SADC
    25     A   .22    .4   .48     1   3.3  1.26   2.6    23    25   -99   -99   7.8   -99   -99   -99
    45   Bw1   .22    .4   .48  .497   3.2  1.29   1.3    22    24   -99   -99   8.2   -99   -99   -99
    60   Bw2   .18   .35   .44   .35   3.3  1.41    .5    17    24   -99   -99   8.3   -99   -99   -99

*IZBG160006  NSRI        L        150  BADSEY
@SITE        COUNTRY          LAT     LONG SCS FAMILY
 BG          UK             51.777  -1.397 medium loamy material over calcareous gravel
@ SCOM  SALB  SLU1  SLDR  SLRO  SLNF  SLPF  SMHB  SMPX  SMKE
    BN   .13     6    .6    61     1     1 IB001 IB001 IB001
@  SLB  SLMH  SLLL  SDUL  SSAT  SRGF  SSKS  SBDM  SLOC  SLCL  SLSI  SLCF  SLNI  SLHW  SLHB  SCEC  SADC
    25     A   .21   .38   .46     1   3.3  1.31     2    25    31   -99   -99   7.7   -99   -99   -99
    45   Bw1   .21   .38   .46  .497     3  1.34    .9    22    28   -99   -99     8   -99   -99   -99
    55   Bw2   .08    .2   .36  .368  16.1  1.45    .4    10    10   -99   -99   8.1   -99   -99   -99
   150     C   .05   .14   .33  .129  22.4  1.49    .2     5     6   -99   -99   8.5   -99   -99   -99

*IZBG160007  NSRI        L         70  BANBURY
@SITE        COUNTRY          LAT     LONG SCS FAMILY
 BG          UK              52.11   -1.35 ferruginous medium loamy mat. over lith. ironstone
@ SCOM  SALB  SLU1  SLDR  SLRO  SLNF  SLPF  SMHB  SMPX  SMKE
    BN   .13     6    .6    61     1     1 IB001 IB001 IB001
@  SLB  SLMH  SLLL  SDUL  SSAT  SRGF  SSKS  SBDM  SLOC  SLCL  SLSI  SLCF  SLNI  SLHW  SLHB  SCEC  SADC
    25     A   .21   .38   .45     1   3.1  1.33   1.9    25    31   -99   -99   6.8   -99   -99   -99
    50   Bw1   .21   .38   .46  .472   2.7  1.35    .8    24    28   -99   -99   7.5   -99   -99   -99
    70    BC   .19   .35   .43  .301   2.7  1.44    .3    20    10   -99   -99   7.7   -99   -99   -99

*IZBG160008  NSRI        L         70  BANBURY
@SITE        COUNTRY          LAT     LONG SCS FAMILY
 BG          UK             52.104  -1.356 ferruginous medium loamy mat. over lith. ironstone
@ SCOM  SALB  SLU1  SLDR  SLRO  SLNF  SLPF  SMHB  SMPX  SMKE
    BN   .13     6    .6    64     1     1 IB001 IB001 IB001
@  SLB  SLMH  SLLL  SDUL  SSAT  SRGF  SSKS  SBDM  SLOC  SLCL  SLSI  SLCF  SLNI  SLHW  SLHB  SCEC  SADC
    25     A   .21   .38   .45     1   3.1  1.33   1.9    25    31   -99   -99   6.8   -99   -99   -99
    50   Bw1   .21   .38   .46  .472   2.7  1.35    .8    24    28   -99   -99   7.5   -99   -99   -99
    70    BC   .19   .35   .43  .301   2.7  1.44    .3    20    10   -99   -99   7.7   -99   -99   -99

*IZBG160009  NSRI        L        150  BECCLES
@SITE        COUNTRY          LAT     LONG SCS FAMILY
 BG          UK               52.5     1.2 medium loamy over clayey chalky drift
@ SCOM  SALB  SLU1  SLDR  SLRO  SLNF  SLPF  SMHB  SMPX  SMKE
    BN   .13     6   .25    73     1     1 IB001 IB001 IB001
@  SLB  SLMH  SLLL  SDUL  SSAT  SRGF  SSKS  SBDM  SLOC  SLCL  SLSI  SLCF  SLNI  SLHW  SLHB  SCEC  SADC
    25     A    .2   .37   .44     1   3.2  1.36   1.7    25    29   -99   -99   7.4   -99   -99   -99
    45    Eg   .18   .33   .39  .472   2.1  1.53    .4    22    32   -99   -99   7.5   -99   -99   -99
    70   Btg   .27    .4   .43  .301    .3  1.48    .5    44    32   -99   -99     8   -99   -99   -99
   150    BC   .24   .34   .37  .111    .3  1.62    .2    42    38   -99   -99     8   -99   -99   -99

*IZBG160010  NSRI        SIL       80  BIGNOR
@SITE        COUNTRY          LAT     LONG SCS FAMILY
 BG          UK               51.6      -1 grey siliceous med. loamy mat... to loam w sandst
@ SCOM  SALB  SLU1  SLDR  SLRO  SLNF  SLPF  SMHB  SMPX  SMKE
    BN   .13     6   .25    73     1     1 IB001 IB001 IB001
@  SLB  SLMH  SLLL  SDUL  SSAT  SRGF  SSKS  SBDM  SLOC  SLCL  SLSI  SLCF  SLNI  SLHW  SLHB  SCEC  SADC
    25     A   .14   .33   .39     1   3.8  1.44     1    12    73   -99   -99   6.8   -99   -99   -99
    30     E   .16   .35   .42  .472   4.4  1.38    .5    11    65   -99   -99     7   -99   -99   -99
    55    Bt   .29   .46   .48  .301    .1  1.36    .6    23    59   -99   -99   7.1   -99   -99   -99
    80    BC    .3   .45   .48  .111    .1  1.37    .4    31    60   -99   -99   7.2   -99   -99   -99

*IZBG160011  NSRI        SIL       80  BIGNOR
@SITE        COUNTRY          LAT     LONG SCS FAMILY
 BG          UK             51.676  -1.024 grey siliceous med. loamy mat... to loam w sandst
@ SCOM  SALB  SLU1  SLDR  SLRO  SLNF  SLPF  SMHB  SMPX  SMKE
    BN   .13     6   .25    76     1     1 IB001 IB001 IB001
@  SLB  SLMH  SLLL  SDUL  SSAT  SRGF  SSKS  SBDM  SLOC  SLCL  SLSI  SLCF  SLNI  SLHW  SLHB  SCEC  SADC
    25     A   .14   .33   .39     1   3.8  1.44     1    12    73   -99   -99   6.8   -99   -99   -99
    30     E   .16   .35   .42  .472   4.4  1.38    .5    11    65   -99   -99     7   -99   -99   -99
    55    Bt   .29   .46   .48  .301    .1  1.36    .6    23    59   -99   -99   7.1   -99   -99   -99
    80    BC    .3   .45   .48  .111    .1  1.37    .4    31    60   -99   -99   7.2   -99   -99   -99

*IZBG160012  NSRI        L        100  BISHAMPTON
@SITE        COUNTRY          LAT     LONG SCS FAMILY
 BG          UK             53.678   -0.29 medium loamy drift with siliceous stones
@ SCOM  SALB  SLU1  SLDR  SLRO  SLNF  SLPF  SMHB  SMPX  SMKE
    BN   .13     6    .4    73     1     1 IB001 IB001 IB001
@  SLB  SLMH  SLLL  SDUL  SSAT  SRGF  SSKS  SBDM  SLOC  SLCL  SLSI  SLCF  SLNI  SLHW  SLHB  SCEC  SADC
    25     A   .21   .39   .46     1   3.3   1.3   2.1    23    33   -99   -99   6.6   -99   -99   -99
    50     E   .21   .38   .45  .472   2.7  1.37    .6    23    38   -99   -99   6.8   -99   -99   -99
    75    Bt   .21   .35   .39  .287    .4  1.58    .4    26    22   -99   -99     7   -99   -99   -99
   100    BC   .21   .32   .36  .174    .4  1.66    .2    34    27   -99   -99   7.1   -99   -99   -99

*IZBG160013  NSRI        L        150  BROCKHURST
@SITE        COUNTRY          LAT     LONG SCS FAMILY
 BG          UK              52.17   -1.65 med loamy or med silty drift over reddish clayey..
@ SCOM  SALB  SLU1  SLDR  SLRO  SLNF  SLPF  SMHB  SMPX  SMKE
    BN   .13     6   .25    81     1     1 IB001 IB001 IB001
@  SLB  SLMH  SLLL  SDUL  SSAT  SRGF  SSKS  SBDM  SLOC  SLCL  SLSI  SLCF  SLNI  SLHW  SLHB  SCEC  SADC
    25     A   .22    .4   .48     1     3  1.26   2.3    26    42   -99   -99   6.4   -99   -99   -99
    45    Eg   .21   .36   .41  .472   2.1  1.45    .6    26    44   -99   -99   6.4   -99   -99   -99
    70   Btg   .27   .38   .41  .301    .3  1.52    .3    46    40   -99   -99   6.7   -99   -99   -99
   100    BC   .26   .37   .39  .111    .2  1.57    .2    45    48   -99   -99   7.5   -99   -99   -99
   150     C   .25   .36   .38  .082    .2   1.6    .2    40    52   -99   -99     8   -99   -99   -99

*IZBG160014  NSRI        L        150  BURLINGHAM
@SITE        COUNTRY          LAT     LONG SCS FAMILY
 BG          UK               52.6     0.7 medium loamy chalky drift
@ SCOM  SALB  SLU1  SLDR  SLRO  SLNF  SLPF  SMHB  SMPX  SMKE
    BN   .13     6    .4    76     1     1 IB001 IB001 IB001
@  SLB  SLMH  SLLL  SDUL  SSAT  SRGF  SSKS  SBDM  SLOC  SLCL  SLSI  SLCF  SLNI  SLHW  SLHB  SCEC  SADC
    25     A   .18   .35   .43     1   3.4   1.4   1.4    22    34   -99   -99   7.5   -99   -99   -99
    45     E    .2   .37   .44  .497   2.7   1.4    .5    22    32   -99   -99     8   -99   -99   -99
    60    Bt   .24   .38   .41   .35    .3  1.53    .4    33    33   -99   -99   8.3   -99   -99   -99
    80   Btg   .23   .37    .4  .247    .3  1.55    .4    30    33   -99   -99   8.3   -99   -99   -99
   150    BC    .2   .33   .36    .1    .4  1.66    .2    28    34   -99   -99   8.4   -99   -99   -99

*IZBG160015  NSRI        L        150  BURLINGHAM
@SITE        COUNTRY          LAT     LONG SCS FAMILY
 BG          UK               52.6     0.7 medium loamy chalky drift
@ SCOM  SALB  SLU1  SLDR  SLRO  SLNF  SLPF  SMHB  SMPX  SMKE
    BN   .13     6    .4    73     1     1 IB001 IB001 IB001
@  SLB  SLMH  SLLL  SDUL  SSAT  SRGF  SSKS  SBDM  SLOC  SLCL  SLSI  SLCF  SLNI  SLHW  SLHB  SCEC  SADC
    25     A   .18   .35   .43     1   3.4   1.4   1.4    22    34   -99   -99   7.5   -99   -99   -99
    45     E    .2   .37   .44  .497   2.7   1.4    .5    22    32   -99   -99     8   -99   -99   -99
    60    Bt   .24   .38   .41   .35    .3  1.53    .4    33    33   -99   -99   8.3   -99   -99   -99
    80   Btg   .23   .37    .4  .247    .3  1.55    .4    30    33   -99   -99   8.3   -99   -99   -99
   150    BC    .2   .33   .36    .1    .4  1.66    .2    28    34   -99   -99   8.4   -99   -99   -99

*IZBG160016  NSRI        L        100  CANNAMORE
@SITE        COUNTRY          LAT     LONG SCS FAMILY
 BG          UK             52.362  -0.016 medium loamy chalky drift
@ SCOM  SALB  SLU1  SLDR  SLRO  SLNF  SLPF  SMHB  SMPX  SMKE
    BN   .13     6    .4    76     1     1 IB001 IB001 IB001
@  SLB  SLMH  SLLL  SDUL  SSAT  SRGF  SSKS  SBDM  SLOC  SLCL  SLSI  SLCF  SLNI  SLHW  SLHB  SCEC  SADC
    25     A   .22   .41   .49     1   3.2  1.24   2.6    25    34   -99   -99   7.7   -99   -99   -99
    40   Bw1   .25   .41   .45  .522    .3  1.45    .7    24    35   -99   -99     8   -99   -99   -99
    75    BC   .24   .37    .4  .317    .3  1.55    .3    31    40   -99   -99   8.6   -99   -99   -99
   100     C   .22   .34   .37  .174    .3   .16    .2    29    44   -99   -99   8.6   -99   -99   -99

*IZBG160017  NSRI        L        100  CANNAMORE
@SITE        COUNTRY          LAT     LONG SCS FAMILY
 BG          UK             52.397  -0.206 medium loamy chalky drift
@ SCOM  SALB  SLU1  SLDR  SLRO  SLNF  SLPF  SMHB  SMPX  SMKE
    BN   .13     6    .4    73     1     1 IB001 IB001 IB001
@  SLB  SLMH  SLLL  SDUL  SSAT  SRGF  SSKS  SBDM  SLOC  SLCL  SLSI  SLCF  SLNI  SLHW  SLHB  SCEC  SADC
    25     A   .22   .41   .49     1   3.2  1.24   2.6    25    34   -99   -99   7.7   -99   -99   -99
    40   Bw1   .25   .41   .45  .522    .3  1.45    .7    24    35   -99   -99     8   -99   -99   -99
    75    BC   .24   .37    .4  .317    .3  1.55    .3    31    40   -99   -99   8.6   -99   -99   -99
   100     C   .22   .34   .37  .174    .3   .16    .2    29    44   -99   -99   8.6   -99   -99   -99

*IZBG160018  NSRI        CL       150  CONWAY
@SITE        COUNTRY          LAT     LONG SCS FAMILY
 BG          UK             53.605  -1.035 medium silty river alluvium
@ SCOM  SALB  SLU1  SLDR  SLRO  SLNF  SLPF  SMHB  SMPX  SMKE
    BN   .13     6   .25    73     1     1 IB001 IB001 IB001
@  SLB  SLMH  SLLL  SDUL  SSAT  SRGF  SSKS  SBDM  SLOC  SLCL  SLSI  SLCF  SLNI  SLHW  SLHB  SCEC  SADC
    20     A   .24   .44   .51     1     3  1.17     3    28    50   -99   -99   6.5   -99   -99   -99
    55   Bg1   .21   .37   .42  .472   2.4  1.41    .7    25    54   -99   -99   7.6   -99   -99   -99
    85   Bg2   .22   .39   .45  .247   2.8  1.34    .7    24    58   -99   -99   7.8   -99   -99   -99
   110    BC   .22   .39   .45  .142   2.9  1.32    .8    24    59   -99   -99   8.3   -99   -99   -99
   150     C   .23    .4   .47  .074   2.6   1.3     1    28    50   -99   -99   6.5   -99   -99   -99

*IZBG160019  NSRI        SIC      150  DENCHWORTH
@SITE        COUNTRY          LAT     LONG SCS FAMILY
 BG          UK               52.3    -0.9 swelling clayey mat passing to clay or soft mudsto
@ SCOM  SALB  SLU1  SLDR  SLRO  SLNF  SLPF  SMHB  SMPX  SMKE
    BN   .13     6   .25    81     1     1 IB001 IB001 IB001
@  SLB  SLMH  SLLL  SDUL  SSAT  SRGF  SSKS  SBDM  SLOC  SLCL  SLSI  SLCF  SLNI  SLHW  SLHB  SCEC  SADC
    20     A   .26   .45   .51     1     3  1.15   2.9    43    40   -99   -99   6.3   -99   -99   -99
    50   Bg1   .33   .46   .49  .497    .3  1.32   1.2    64    30   -99   -99   6.9   -99   -99   -99
    70   Bg2   .34   .47    .5  .301    .3  1.29    .8    64    31   -99   -99     7   -99   -99   -99
   135    BC   .32   .45   .47  .129    .3  1.36    .4    58    36   -99   -99   7.4   -99   -99   -99
   150     C   .32   .44   .47  .058    .3  1.37    .3    56    38   -99   -99   7.4   -99   -99   -99

*IZBG160020  NSRI        SIC      150  DENCHWORTH
@SITE        COUNTRY          LAT     LONG SCS FAMILY
 BG          UK               52.1    -1.3 swelling clayey mat passing to clay or soft mudsto
@ SCOM  SALB  SLU1  SLDR  SLRO  SLNF  SLPF  SMHB  SMPX  SMKE
    BN   .13     6   .25    84     1     1 IB001 IB001 IB001
@  SLB  SLMH  SLLL  SDUL  SSAT  SRGF  SSKS  SBDM  SLOC  SLCL  SLSI  SLCF  SLNI  SLHW  SLHB  SCEC  SADC
    20     A   .26   .45   .51     1     3  1.15   2.9    43    40   -99   -99   6.3   -99   -99   -99
    50   Bg1   .33   .46   .49  .497    .3  1.32   1.2    64    30   -99   -99   6.9   -99   -99   -99
    70   Bg2   .34   .47    .5  .301    .3  1.29    .8    64    31   -99   -99     7   -99   -99   -99
   135    BC   .32   .45   .47  .129    .3  1.36    .4    58    36   -99   -99   7.4   -99   -99   -99
   150     C   .32   .44   .47  .058    .3  1.37    .3    56    38   -99   -99   7.4   -99   -99   -99

*IZBG160021  NSRI        SIC      150  DOWNHOLLAND
@SITE        COUNTRY          LAT     LONG SCS FAMILY
 BG          UK             52.527  -0.062 clayey marine alluvium
@ SCOM  SALB  SLU1  SLDR  SLRO  SLNF  SLPF  SMHB  SMPX  SMKE
    BN   .13     6   .25    73     1     1 IB001 IB001 IB001
@  SLB  SLMH  SLLL  SDUL  SSAT  SRGF  SSKS  SBDM  SLOC  SLCL  SLSI  SLCF  SLNI  SLHW  SLHB  SCEC  SADC
    30     A   .34   .57   .64     1   2.1   .81  11.7    45    46   -99   -99   6.8   -99   -99   -99
    50   Bg1   .31   .46    .5  .449   1.2  1.24   2.4    55    40   -99   -99   6.8   -99   -99   -99
    80   Bg2   .31   .48   .53  .273   1.8  1.14   2.1    50    48   -99   -99   7.1   -99   -99   -99
   110    BC   .31   .47   .52   .15   1.7  1.17   1.8    50    49   -99   -99   7.4   -99   -99   -99
   150     C   .33   .47   .49  .074    .2  1.32    .7    50    50   -99   -99   7.8   -99   -99   -99

*IZBG160022  NSRI        L        150  DUNNINGTON HEATH
@SITE        COUNTRY          LAT     LONG SCS FAMILY
 BG          UK              53.25   -0.76 light loamy drift over reddish clayey mat...clay
@ SCOM  SALB  SLU1  SLDR  SLRO  SLNF  SLPF  SMHB  SMPX  SMKE
     R   .14     6   .25    73     1     1 IB001 IB001 IB001
@  SLB  SLMH  SLLL  SDUL  SSAT  SRGF  SSKS  SBDM  SLOC  SLCL  SLSI  SLCF  SLNI  SLHW  SLHB  SCEC  SADC
    30     A   .19   .37   .45     1   3.5  1.35   1.8    18    34   -99   -99   6.7   -99   -99   -99
    50     E   .17   .35   .43  .449   3.5  1.41    .5    15    27   -99   -99   6.8   -99   -99   -99
    85    Bt   .29   .42   .44  .259    .3  1.44    .6    50    39   -99   -99   7.2   -99   -99   -99
   120    BC   .27   .39   .41  .129    .2  1.53    .3    43    53   -99   -99   7.4   -99   -99   -99
   150     C   .22   .32   .35  .067    .3  1.69    .1    40    48   -99   -99   7.7   -99   -99   -99

*IZBG160023  NSRI        L        150  DUNNINGTON HEATH
@SITE        COUNTRY          LAT     LONG SCS FAMILY
 BG          UK             53.256  -0.767 light loamy drift over reddish clayey mat...clay
@ SCOM  SALB  SLU1  SLDR  SLRO  SLNF  SLPF  SMHB  SMPX  SMKE
     R   .14     6   .25    76     1     1 IB001 IB001 IB001
@  SLB  SLMH  SLLL  SDUL  SSAT  SRGF  SSKS  SBDM  SLOC  SLCL  SLSI  SLCF  SLNI  SLHW  SLHB  SCEC  SADC
    30     A   .19   .37   .45     1   3.5  1.35   1.8    18    34   -99   -99   6.7   -99   -99   -99
    50     E   .17   .35   .43  .449   3.5  1.41    .5    15    27   -99   -99   6.8   -99   -99   -99
    85    Bt   .29   .42   .44  .259    .3  1.44    .6    50    39   -99   -99   7.2   -99   -99   -99
   120    BC   .27   .39   .41  .129    .2  1.53    .3    43    53   -99   -99   7.4   -99   -99   -99
   150     C   .22   .32   .35  .067    .3  1.69    .1    40    48   -99   -99   7.7   -99   -99   -99

*IZBG160024  NSRI        L        150  DUNNINGTON HEATH
@SITE        COUNTRY          LAT     LONG SCS FAMILY
 BG          UK               52.9      -1 light loamy drift over reddish clayey mat...
@ SCOM  SALB  SLU1  SLDR  SLRO  SLNF  SLPF  SMHB  SMPX  SMKE
     R   .14     6   .25    73     1     1 IB001 IB001 IB001
@  SLB  SLMH  SLLL  SDUL  SSAT  SRGF  SSKS  SBDM  SLOC  SLCL  SLSI  SLCF  SLNI  SLHW  SLHB  SCEC  SADC
    30     A   .19   .37   .45     1   3.5  1.35   1.8    18    34   -99   -99   6.7   -99   -99   -99
    50     E   .17   .35   .43  .449   3.5  1.41    .5    15    27   -99   -99   6.8   -99   -99   -99
    85    Bt   .29   .42   .44  .259    .3  1.44    .6    50    39   -99   -99   7.2   -99   -99   -99
   120    BC   .27   .39   .41  .129    .2  1.53    .3    43    53   -99   -99   7.4   -99   -99   -99
   150     C   .22   .32   .35  .067    .3  1.69    .1    40    48   -99   -99   7.7   -99   -99   -99

*IZBG160025  NSRI        L        150  EFFORD
@SITE        COUNTRY          LAT     LONG SCS FAMILY
 BG          UK              52.26   -0.39 medium loamy material over non-calcareous gravel
@ SCOM  SALB  SLU1  SLDR  SLRO  SLNF  SLPF  SMHB  SMPX  SMKE
    BN   .13     6    .6    61     1     1 IB001 IB001 IB001
@  SLB  SLMH  SLLL  SDUL  SSAT  SRGF  SSKS  SBDM  SLOC  SLCL  SLSI  SLCF  SLNI  SLHW  SLHB  SCEC  SADC
    30     A   .16   .33    .4     1   3.5  1.44   1.1    20    46   -99   -99   6.4   -99   -99   -99
    35     E   .19   .37   .45  .522   3.4  1.35    .8    18    45   -99   -99   6.5   -99   -99   -99
    60    Bt   .21   .37   .44  .387   2.6  1.38    .5    24    46   -99   -99   6.4   -99   -99   -99
    80    BC    .2   .36   .43  .247   2.5  1.43    .3    22    32   -99   -99   5.9   -99   -99   -99
   150     C   .13   .31   .41    .1   4.3  1.49    .1     8    18   -99   -99   5.9   -99   -99   -99

*IZBG160026  NSRI        CL        35  ELMTON
@SITE        COUNTRY          LAT     LONG SCS FAMILY
 BG          UK               51.8   -1.31 medium loamy lithoskeletal limestone
@ SCOM  SALB  SLU1  SLDR  SLRO  SLNF  SLPF  SMHB  SMPX  SMKE
    BN   .13     6    .6    73     1     1 IB001 IB001 IB001
@  SLB  SLMH  SLLL  SDUL  SSAT  SRGF  SSKS  SBDM  SLOC  SLCL  SLSI  SLCF  SLNI  SLHW  SLHB  SCEC  SADC
    25     A   .26   .46   .55     1   3.5  1.07   4.4    28    38   -99   -99   7.7   -99   -99   -99
    35    BC   .23   .41   .48  .549   3.1  1.26   1.4    24    39   -99   -99   8.1   -99   -99   -99

*IZBG160027  NSRI        C        150  EVESHAM
@SITE        COUNTRY          LAT     LONG SCS FAMILY
 BG          UK                 53    -0.6 swelling clayey mat passing to clay or soft mud
@ SCOM  SALB  SLU1  SLDR  SLRO  SLNF  SLPF  SMHB  SMPX  SMKE
    BN   .13     6   .25    73     1     1 IB001 IB001 IB001
@  SLB  SLMH  SLLL  SDUL  SSAT  SRGF  SSKS  SBDM  SLOC  SLCL  SLSI  SLCF  SLNI  SLHW  SLHB  SCEC  SADC
    25     A   .27   .45   .51     1   2.9  1.14   3.1    45    35   -99   -99   7.5   -99   -99   -99
    50   Bw1   .35   .49   .52  .472    .3  1.23   1.3    60    28   -99   -99   7.9   -99   -99   -99
    75   Bg2   .33   .46   .48  .287    .3  1.33    .6    58    35   -99   -99     8   -99   -99   -99
   150    BC   .32   .45   .47  .105    .3  1.36    .4    58    34   -99   -99   8.3   -99   -99   -99

*IZBG160028  NSRI        C        150  EVESHAM
@SITE        COUNTRY          LAT     LONG SCS FAMILY
 BG          UK               52.9    -0.7 swelling clayey mat passing to clay or soft mud
@ SCOM  SALB  SLU1  SLDR  SLRO  SLNF  SLPF  SMHB  SMPX  SMKE
    BN   .13     6   .25    76     1     1 IB001 IB001 IB001
@  SLB  SLMH  SLLL  SDUL  SSAT  SRGF  SSKS  SBDM  SLOC  SLCL  SLSI  SLCF  SLNI  SLHW  SLHB  SCEC  SADC
    25     A   .27   .45   .51     1   2.9  1.14   3.1    45    35   -99   -99   7.5   -99   -99   -99
    50   Bw1   .35   .49   .52  .472    .3  1.23   1.3    60    28   -99   -99   7.9   -99   -99   -99
    75   Bg2   .33   .46   .48  .287    .3  1.33    .6    58    35   -99   -99     8   -99   -99   -99
   150    BC   .32   .45   .47  .105    .3  1.36    .4    58    34   -99   -99   8.3   -99   -99   -99

*IZBG160029  NSRI        C        150  FLADBURY
@SITE        COUNTRY          LAT     LONG SCS FAMILY
 BG          UK               52.8    -1.1 clayey river alluvium
@ SCOM  SALB  SLU1  SLDR  SLRO  SLNF  SLPF  SMHB  SMPX  SMKE
    BN   .13     6   .25    73     1     1 IB001 IB001 IB001
@  SLB  SLMH  SLLL  SDUL  SSAT  SRGF  SSKS  SBDM  SLOC  SLCL  SLSI  SLCF  SLNI  SLHW  SLHB  SCEC  SADC
    25     A    .3   .49   .56     1   3.3  1.01   4.6    50    30   -99   -99   6.6   -99   -99   -99
    50   Bg1   .32   .46   .48  .472    .3  1.33   1.3    57    29   -99   -99   6.8   -99   -99   -99
    70   Bg2   .28   .43   .48  .301   1.7  1.28   1.1    42    33   -99   -99   6.8   -99   -99   -99
   100    BC   .27   .42   .48  .183   1.6   1.3     1    42    29   -99   -99   6.8   -99   -99   -99
   150     C   .31   .46   .51  .082   1.5  1.21   1.6    50    34   -99   -99   6.9   -99   -99   -99

*IZBG160030  NSRI        C        150  FOGGATHORPE
@SITE        COUNTRY          LAT     LONG SCS FAMILY
 BG          UK                 54    -1.1 clayey stoneless drift
@ SCOM  SALB  SLU1  SLDR  SLRO  SLNF  SLPF  SMHB  SMPX  SMKE
    BN   .13     6    .4    73     1     1 IB001 IB001 IB001
@  SLB  SLMH  SLLL  SDUL  SSAT  SRGF  SSKS  SBDM  SLOC  SLCL  SLSI  SLCF  SLNI  SLHW  SLHB  SCEC  SADC
    20     A   .25   .43    .5     1   2.9  1.19   2.7    40    34   -99   -99   6.8   -99   -99   -99
    50   Bg1   .32   .46   .49  .497    .2  1.33   1.2    50    36   -99   -99   7.2   -99   -99   -99
    70   Bg2   .31   .44   .46  .301    .2  1.39    .8    50    46   -99   -99   6.9   -99   -99   -99
   130    BC    .3   .42   .44  .135    .2  1.44    .7    50    44   -99   -99   7.8   -99   -99   -99
   150     C   .27   .39   .41  .061    .2  1.52    .4    43    52   -99   -99   8.2   -99   -99   -99

*IZBG160032  NSRI        L        150  HOLDERNESS
@SITE        COUNTRY          LAT     LONG SCS FAMILY
 BG          UK               53.6    -0.2 medium loamy chalky drift
@ SCOM  SALB  SLU1  SLDR  SLRO  SLNF  SLPF  SMHB  SMPX  SMKE
    BN   .13     6    .4    73     1     1 IB001 IB001 IB001
@  SLB  SLMH  SLLL  SDUL  SSAT  SRGF  SSKS  SBDM  SLOC  SLCL  SLSI  SLCF  SLNI  SLHW  SLHB  SCEC  SADC
    25     A   .21   .39   .47     1   3.1  1.29   2.2    24    35   -99   -99   6.7   -99   -99   -99
    35     E    .2   .37   .45  .549     3  1.37    .7    20    30   -99   -99   6.9   -99   -99   -99
    65   Btg   .24   .38   .41  .368    .4  1.53    .4    32    30   -99   -99   7.2   -99   -99   -99
   150    BC   .21   .33   .36  .116    .4  1.65    .2    29    35   -99   -99   7.4   -99   -99   -99

*IZBG160033  NSRI        L        150  HOLDERNESS 1
@SITE        COUNTRY          LAT     LONG SCS FAMILY
 BG          UK               53.6    -0.2 medium loamy chalky drift
@ SCOM  SALB  SLU1  SLDR  SLRO  SLNF  SLPF  SMHB  SMPX  SMKE
    BN   .13     6    .4    83     1     1 IB001 IB001 IB001
@  SLB  SLMH  SLLL  SDUL  SSAT  SRGF  SSKS  SBDM  SLOC  SLCL  SLSI  SLCF  SLNI  SLHW  SLHB  SCEC  SADC
    25     A   .21   .39   .47     1   3.1  1.29   2.2    24    35   -99   -99   6.7   -99   -99   -99
    35     E    .2   .37   .45  .549     3  1.37    .7    20    30   -99   -99   6.9   -99   -99   -99
    65   Btg   .24   .38   .41  .368    .4  1.53    .4    32    30   -99   -99   7.2   -99   -99   -99
   150    BC   .21   .33   .36  .116    .4  1.65    .2    29    35   -99   -99   7.4   -99   -99   -99
