*SOILS: General DSSAT Soil Input File

*KKA7020001  KKU            S    105 Yasothorn
@SITE        COUNTRY          LAT     LONG SCS FAMILY
 A7          Thailand          -99    -99  Yasothorn sand
@ SCOM  SALB  SLU1  SLDR  SLRO  SLNF  SLPF  SMHB  SMPX  SMKE
     R  0.14   6.0  0.40  81.0  1.00  1.00 IB001 IB001 IB001
@  SLB  SLMH  SLLL  SDUL  SSAT  SRGF  SSKS  SBDM  SLOC  SLCL  SLSI  SLCF  SLNI  SLHW  SLHB  SCEC  SADC
    15   -99 0.046 0.096 0.408 1.000 21.00  1.50  0.52   1.1   2.9   0.0 0.030   5.5   -99   1.3   -99 
    30   -99 0.043 0.092 0.391 0.638 21.00  1.55  0.42   1.2   2.8   0.0 0.020   5.6   -99   1.5   -99 
    45   -99 0.056 0.106 0.247 0.472 21.00  1.95  0.34   4.2   3.8   0.0 0.020   4.9   -99   1.6   -99 
    60   -99 0.060 0.108 0.302 0.350 21.00  1.80  0.30   5.2   2.8   0.0 0.020   4.5   -99   1.9   -99 
    75   -99 0.065 0.115 0.269 0.259 21.00  1.89  0.29   6.2   3.8   0.0 0.020   4.4   -99   2.4   -99 
    90   -99 0.069 0.117 0.306 0.192 21.00  1.79  0.27   7.2   2.8   0.0 0.010   4.2   -99   2.6   -99 
   105   -99 0.061 0.110 0.303 0.142 21.00  1.80  0.15   6.2   4.8   0.0 0.010   4.2   -99   2.9   -99 
