*SOILS: New Mexico soil profiles

*NMCL CURRY  USAD-NRCS     CL     150  Olton Clay Loam
@SITE        COUNTRY          LAT     LONG SCS FAMILY
 ASC         USA             34.35 -103.12 fine, mixed, superlative, thermic Aridic Paleustol
@ SCOM  SALB  SLU1  SLDR  SLRO  SLNF  SLPF  SMHB  SMPX  SMKE
     R   .14     6    .4    83     1     1 IB001 IB001 IB001
@  SLB  SLMH  SLLL  SDUL  SSAT  SRGF  SSKS  SBDM  SLOC  SLCL  SLSI  SLCF  SLNI  SLHW  SLHB  SCEC  SADC
     5   -99  .209  .354  .467     1   .23  1.33    .9  31.7  36.4   -99   -99   7.8   -99  20.1   -99
    15   -99  .209  .354  .467     1   .23  1.33    .9  31.7  36.4   -99   -99   7.8   -99  20.1   -99
    30   -99  .244  .395  .487  .638   .06  1.28   .64  40.2  39.5   -99   -99   7.7   -99    10   -99
    45   -99  .244  .395  .487  .472   .06  1.28   .64  40.2  39.5   -99   -99   7.7   -99    10   -99
    60   -99  .211   .35  .467   .35   .23  1.34   .34  35.2  38.7   -99   -99   8.5   -99    22   -99
    75   -99  .203  .328  .443  .259   .23  1.41   .25    34  33.5   -99   -99   8.6   -99  22.1   -99
    90   -99  .203  .328  .443  .192   .23  1.41   .25    34  33.5   -99   -99   8.6   -99  22.1   -99
   105   -99  .186  .307  .432  .142   .23  1.44   .19    31    33   -99   -99   8.4   -99  20.2   -99
   120   -99  .219  .353  .461  .105   .23  1.36   .14  37.9  37.9   -99   -99     8   -99  10.9   -99
   135   -99  .219  .353  .461  .078   .23  1.36   .14  37.9  37.9   -99   -99     8   -99  10.9   -99
   150   -99  .219  .353  .461  .058   .23  1.36   .14  37.9  37.9   -99   -99     8   -99  10.9   -99
