*SOILS

*SIAZ950001  SCS         L        80 Shallow, using Exp. FC and WP
@SITE        COUNTRY          LAT     LONG SCS FAMILY
 ZA          SPAIN          41.480   0.530 UNKNOWN- Corrected LL, DUL, shallow
@ SCOM  SALB  SLU1  SLDR  SLRO  SLNF  SLPF  SMHB  SMPX  SMKE
    BN  0.13   9.3  0.60  76.0  1.00  1.00 IB001 IB001 IB001
@  SLB  SLMH  SLLL  SDUL  SSAT  SRGF  SSKS  SBDM  SLOC  SLCL  SLSI  SLCF  SLNI  SLHW  SLHB  SCEC  SADC
    30   -99 0.103 0.267 0.368 1.000   -99  1.32  0.95  16.6  40.1   0.0  0.10   8.3   -99   -99   -99   
    60   -99 0.091 0.275 0.333 0.300   -99  1.38  0.49  11.3  26.4   0.0  0.05   8.3   -99   -99   -99   
    80   -99 0.080 0.271 0.342 0.150   -99  1.38  0.43  12.4  30.6   0.0  0.05   8.4   -99   -99   -99   

*SIAZ950002  SCS         L       150 150 cm, DSSAT estimates of FC,WP
@SITE        COUNTRY          LAT     LONG SCS FAMILY
 ZA          SPAIN          41.480   0.530 UNKNOWN
@ SCOM  SALB  SLU1  SLDR  SLRO  SLNF  SLPF  SMHB  SMPX  SMKE
    BN  0.13   9.3  0.60  76.0  1.00  1.00 IB001 IB001 IB001
@  SLB  SLMH  SLLL  SDUL  SSAT  SRGF  SSKS  SBDM  SLOC  SLCL  SLSI  SLCF  SLNI  SLHW  SLHB  SCEC  SADC
    30   -99 0.110 0.238 0.368 0.500   -99  1.32  0.95  16.6  40.1   0.0  0.10   8.3   -99   -99   -99   
    60   -99 0.086 0.207 0.333 0.200   -99  1.38  0.49  11.3  26.4   0.0  0.05   8.3   -99   -99   -99   
    90   -99 0.091 0.214 0.342 0.150   -99  1.38  0.43  12.4  30.6   0.0  0.05   8.4   -99   -99   -99   
   150   -99 0.097 0.222 0.352 0.100   -99  1.41  0.45  13.6  34.6   0.0  0.05   8.5   -99   -99   -99   
