*SOILS: General DSSAT Soil Input File
! DSSAT v4.6; 07/01/2013
!
! Standard Soil Profiles
!
! The following generic information was developed by A.J. Gijsman:
!
! - BD was estimated as BD = 100 / (SOM% / 0.224 + (100 - SOM%) / mineral BD)  
!   (Adams, 1973; Rawls and Brakensiek, 1985).
! - LL and DUL are according to Saxton et al., 1986.
! - SAT was taken as a fraction of porosity (Dalgliesh and Foale, 1998):
!   0.93 for soil classes S, SL and LS; 0.95 for soil classes L, SIL, SI,
!   SCL and SC; and 0.97 for soil classes C, CL, SIC and SICL.
!   For this, porosity was estimated as: POR = 1 - BD / APD (in which APD
!   is the adjusted particle density, i.e. corrected for SOM; Baumer and Rice, 1988).
! - The ranges of LL and DUL values were calculated by stepping through the
!   complete texture triangle in steps of 1% sand, 1% silt and 1% clay (>5000 
!   combinations), but with the texture limitations that Saxton set for his method
!   taken into consideration. For SAT, these limitations do not hold, as this was
!   based on POR and not on Saxton. See Gijsman et al., 2002.
! - The root growth distribution function SRGF was was calculated as:
!   SRGF = 1 * EXP(-0.02 * LAYER_CENTER); SRGF was set 1 for LAYER_BOTTOM <= 15.
!
! SOIL CLASS       BD                LL               DUL               SAT
! ========== =============     =============     =============     =============
!   C        1.129 - 1.512     0.220 - 0.346     0.330 - 0.467     0.413 - 0.488
!   CL       1.243 - 1.502     0.156 - 0.218     0.282 - 0.374     0.417 - 0.512
!   L        1.245 - 1.483     0.083 - 0.156     0.222 - 0.312     0.415 - 0.501
!   LS       1.353 - 1.629     0.059 - 0.110     0.137 - 0.185     0.355 - 0.416
!   S        1.446 - 1.574     0.055 - 0.085     0.123 - 0.158     0.374 - 0.400
!   SC       1.501 - 1.593     0.195 - 0.294     0.276 - 0.389     0.376 - 0.409
!   SCL      1.475 - 1.636     0.132 - 0.191     0.213 - 0.304     0.360 - 0.418
!   SI       0.978 - 1.464     0.096 - 0.099     0.299 - 0.307     0.442 - 0.488
!   SIC      1.307 - 1.446     0.224 - 0.326     0.379 - 0.456     0.455 - 0.489
!   SICL     1.248 - 1.464     0.155 - 0.219     0.324 - 0.392     0.448 - 0.511
!   SIL      0.968 - 1.464     0.082 - 0.152     0.240 - 0.333     0.439 - 0.547
!   SL       1.142 - 1.647     0.066 - 0.133     0.164 - 0.243     0.348 - 0.499
!
!======================================================================================================
! Start of Generic soil profiles
!======================================================================================================
!
! The 12 Generic soils for SOIL.SOL, as estimated by Arjan Gijsman:
!
! - LL, DUL are according to the Nearest Neighbor method (Jagtap et al, 2004)
! - Ksat at -99 
! - BD according to Gijsman et al (2002)
! - SAT based on the APSRU manual (Dalgliesh and Foale, 1998); i.e. 93-97% of porosity
!   depending on the soil type) in which porosity is according to Baumer and Rice (1988).
!
! References
! Adams W.A. 1973. The effect of organic matter on the bulk and true densities of some
!   uncultivated podzolic soils. J. Soil Science 24, 10-17.
! Baumer O.W. and Rice J.W. 1988. Methods to predict soil input data for DRAINMOD. 
!   Am. Soc. Agr. Eng. Paper 88-2564
! Dalgliesh, N.P., and M.A. Foale. 1998. Soil Matters – monitoring soil water and nitrogen
!   in dryland farming. CSIRO, Agricultural Production Systems Research Unit, 
!   Toowoomba, Queensland, Australia. 122 pp.
! Gijsman A.J., Jagtap S.S., Jones J.W. 2002. Wading through a swamp of complete confusion: 
!   how to choose a method for estimating soil water retention parameters for crop models. 
!   European Journal of Agronomy, 18: 75-105.
! Jagtap S.S., Lal U., Jones J.W., Gijsman A.J., Ritchie J.T. 2004. A dynamic nearest-neighbor
!   method for estimating soil water parameters. Transactions of ASAE 47: 1437-1444
! Rawls W.J. and Brakensiek D.L. 1985. Prediction of soil water properties for hydrologic
!   modeling. In: Jones, E.B. and Ward, T.J. (Eds.), Proc. Symp. Watershed Management
!   in the Eighties. April 30-May 1, 1985, Denver, CO. Am. Soc. Civil Eng., 
!   New York, NY. pp.293-299.
! Saxton K.E., Rawls W.J., Romberger J.S., Papendick R.I. 1986. Estimating generalized soil-water
!   characteristics from texture. Soil Sci. Soc. Am. J. 50, 1031-1036
!
!======================================================================================================

*IB00000001  IBSNAT      SIC      210  DEFAULT - DEEP SILTY CLAY
@SITE        COUNTRY          LAT     LONG SCS FAMILY
 Generic     Generic           -99     -99 Generic
@ SCOM  SALB  SLU1  SLDR  SLRO  SLNF  SLPF  SMHB  SMPX  SMKE
   -99   .11     6    .3    85     1     1 IB001 IB001 IB001
@  SLB  SLMH  SLLL  SDUL  SSAT  SRGF  SSKS  SBDM  SLOC  SLCL  SLSI  SLCF  SLNI  SLHW  SLHB  SCEC  SADC
     5   -99  .228  .385  .481     1   -99   1.3  1.75    50    45     0   .17   6.5   -99   -99   -99
    15   -99  .228  .385  .481     1   -99   1.3  1.75    50    45     0   .17   6.5   -99   -99   -99
    30   -99  .249  .406  .482  .638   -99   1.3   1.6    50    45     0   .17   6.5   -99   -99   -99
    45   -99  .249  .406  .465  .472   -99  1.35  1.45    50    45     0   .14   6.5   -99   -99   -99
    60   -99  .249  .406  .465   .35   -99  1.35  1.45    50    45     0   .14   6.5   -99   -99   -99
    90   -99  .308  .456  .468  .223   -99  1.35   1.1    50    45     0   .11   6.5   -99   -99   -99
   120   -99  .207  .341  .452  .122   -99   1.4   .65    50    45     0   .06   6.5   -99   -99   -99
   150   -99  .243  .365  .455  .067   -99   1.4    .3    50    45     0   .03   6.5   -99   -99   -99
   180   -99  .259  .361  .457  .037   -99   1.4    .1    50    45     0   .01   6.5   -99   -99   -99
   210   -99  .259  .361  .457   .02   -99   1.4   .01    50    45     0     0   6.5   -99   -99   -99

*IB00000002  IBSNAT      SIC      150  DEFAULT - MEDIUM SILTY CLAY
@SITE        COUNTRY          LAT     LONG SCS FAMILY
 Generic     Generic           -99     -99 Generic
@ SCOM  SALB  SLU1  SLDR  SLRO  SLNF  SLPF  SMHB  SMPX  SMKE
   -99   .11     6    .2    87     1     1 IB001 IB001 IB001
@  SLB  SLMH  SLLL  SDUL  SSAT  SRGF  SSKS  SBDM  SLOC  SLCL  SLSI  SLCF  SLNI  SLHW  SLHB  SCEC  SADC
     5   -99  .228  .385  .463     1   -99  1.35  1.74    50    45     0   .17   6.5   -99   -99   -99
    15   -99  .228  .385  .463     1   -99  1.35  1.74    50    45     0   .17   6.5   -99   -99   -99
    30   -99  .228  .385  .459  .638   -99  1.36  1.66    50    45     0   .17   6.5   -99   -99   -99
    45   -99  .249  .406  .461  .472   -99  1.36  1.45    50    45     0   .14   6.5   -99   -99   -99
    60   -99  .249  .406  .461   .35   -99  1.36  1.45    50    45     0   .14   6.5   -99   -99   -99
    90   -99  .308  .449   .46  .223   -99  1.37  1.09    50    45     0   .11   6.5   -99   -99   -99
   120   -99  .207  .341   .46  .122   -99  1.38   .65    50    45     0   .06   6.5   -99   -99   -99
   150   -99  .256  .373  .463  .067   -99  1.38   .29    50    45     0   .03   6.5   -99   -99   -99

*IB00000003  IBSNAT      SIC       60  DEFAULT - SHALLOW SILTY CLAY
@SITE        COUNTRY          LAT     LONG SCS FAMILY
 Generic     Generic           -99     -99 Generic
@ SCOM  SALB  SLU1  SLDR  SLRO  SLNF  SLPF  SMHB  SMPX  SMKE
   -99   .11     6    .1    89     1     1 IB001 IB001 IB001
@  SLB  SLMH  SLLL  SDUL  SSAT  SRGF  SSKS  SBDM  SLOC  SLCL  SLSI  SLCF  SLNI  SLHW  SLHB  SCEC  SADC
     5   -99  .228  .385  .463     1   -99  1.35  1.74    50    45     0   .17   6.5   -99   -99   -99
    15   -99  .228  .385  .463     1   -99  1.35  1.74    50    45     0   .17   6.5   -99   -99   -99
    30   -99  .228  .385  .459  .638   -99  1.36  1.66    50    45     0   .17   6.5   -99   -99   -99
    45   -99  .249  .406  .461  .472   -99  1.36  1.45    50    45     0   .14   6.5   -99   -99   -99
    60   -99  .249  .406  .461   .35   -99  1.36  1.45    50    45     0   .14   6.5   -99   -99   -99

*IB00000004  IBSNAT      SIL      210  DEFAULT - DEEP SILTY LOAM
@SITE        COUNTRY          LAT     LONG SCS FAMILY
 Generic     Generic           -99     -99 Generic
@ SCOM  SALB  SLU1  SLDR  SLRO  SLNF  SLPF  SMHB  SMPX  SMKE
   -99   .12     6    .4    77     1     1 IB001 IB001 IB001
@  SLB  SLMH  SLLL  SDUL  SSAT  SRGF  SSKS  SBDM  SLOC  SLCL  SLSI  SLCF  SLNI  SLHW  SLHB  SCEC  SADC
     5   -99   .11  .227   .45     1   -99  1.37  1.16    10    60     0   .12   6.5   -99   -99   -99
    15   -99   .11  .227   .45     1   -99  1.37  1.16    10    60     0   .12   6.5   -99   -99   -99
    30   -99  .103  .201  .451  .638   -99  1.37   1.1    10    60     0   .11   6.5   -99   -99   -99
    45   -99  .099  .193  .452  .472   -99  1.37   .97    10    60     0    .1   6.5   -99   -99   -99
    60   -99  .099  .193  .452   .35   -99  1.37   .97    10    60     0    .1   6.5   -99   -99   -99
    90   -99  .088  .173   .45  .223   -99  1.38   .72    10    60     0   .07   6.5   -99   -99   -99
   120   -99  .079  .165  .452  .122   -99  1.38   .43    10    60     0   .04   6.5   -99   -99   -99
   150   -99  .086  .178   .45  .067   -99  1.39    .2    10    60     0   .02   6.5   -99   -99   -99
   190   -99  .072  .174  .451  .033   -99  1.39   .06    10    60     0   .01   6.5   -99   -99   -99
   210   -99  .072  .174  .452  .018   -99  1.39   .01    10    60     0     0   6.5   -99   -99   -99

*IB00000005  IBSNAT      SIL      150  DEFAULT - MEDIUM SILTY LOAM
@SITE        COUNTRY          LAT     LONG SCS FAMILY
 Generic     Generic           -99     -99 Generic
@ SCOM  SALB  SLU1  SLDR  SLRO  SLNF  SLPF  SMHB  SMPX  SMKE
   -99   .12     6    .3    79     1     1 IB001 IB001 IB001
@  SLB  SLMH  SLLL  SDUL  SSAT  SRGF  SSKS  SBDM  SLOC  SLCL  SLSI  SLCF  SLNI  SLHW  SLHB  SCEC  SADC
     5   -99   .11  .227   .45     1   -99  1.37  1.16    10    60     0   .12   6.5   -99   -99   -99
    15   -99   .11  .227   .45     1   -99  1.37  1.16    10    60     0   .12   6.5   -99   -99   -99
    30   -99  .103  .201  .451  .638   -99  1.37   1.1    10    60     0   .11   6.5   -99   -99   -99
    45   -99  .099  .193  .452  .472   -99  1.37   .97    10    60     0    .1   6.5   -99   -99   -99
    60   -99  .099  .193  .452   .35   -99  1.37   .97    10    60     0    .1   6.5   -99   -99   -99
    90   -99  .088  .173   .45  .223   -99  1.38   .72    10    60     0   .07   6.5   -99   -99   -99
   120   -99  .079  .165  .452  .122   -99  1.38   .43    10    60     0   .04   6.5   -99   -99   -99
   150   -99  .086  .178   .45  .067   -99  1.39    .2    10    60     0   .02   6.5   -99   -99   -99

*IB00000006  IBSNAT      SIL       60  DEFAULT - SHALLOW SILTY LOAM
@SITE        COUNTRY          LAT     LONG SCS FAMILY
 Generic     Generic           -99     -99 Generic
@ SCOM  SALB  SLU1  SLDR  SLRO  SLNF  SLPF  SMHB  SMPX  SMKE
   -99   .12     6    .2    81     1     1 IB001 IB001 IB001
@  SLB  SLMH  SLLL  SDUL  SSAT  SRGF  SSKS  SBDM  SLOC  SLCL  SLSI  SLCF  SLNI  SLHW  SLHB  SCEC  SADC
     5   -99   .11  .227   .45     1   -99  1.37  1.16    10    60     0   .12   6.5   -99   -99   -99
    15   -99   .11  .227   .45     1   -99  1.37  1.16    10    60     0   .12   6.5   -99   -99   -99
    30   -99  .103  .201  .451  .638   -99  1.37   1.1    10    60     0   .11   6.5   -99   -99   -99
    45   -99  .099  .193  .452  .472   -99  1.37   .97    10    60     0    .1   6.5   -99   -99   -99
    60   -99  .099  .193  .452   .35   -99  1.37   .97    10    60     0    .1   6.5   -99   -99   -99

*IB00000007  IBSNAT      SL       210  DEFAULT - DEEP SANDY LOAM
@SITE        COUNTRY          LAT     LONG SCS FAMILY
 Generic     Generic           -99     -99 Generic
@ SCOM  SALB  SLU1  SLDR  SLRO  SLNF  SLPF  SMHB  SMPX  SMKE
   -99   .13     6    .5    68     1     1 IB001 IB001 IB001
@  SLB  SLMH  SLLL  SDUL  SSAT  SRGF  SSKS  SBDM  SLOC  SLCL  SLSI  SLCF  SLNI  SLHW  SLHB  SCEC  SADC
     5   -99  .052  .176  .359     1   -99  1.61    .7    10    30     0   .07   6.5   -99   -99   -99
    15   -99  .052  .176  .359     1   -99  1.61    .7    10    30     0   .07   6.5   -99   -99   -99
    30   -99  .052  .176  .359  .638   -99  1.61   .66    10    30     0   .07   6.5   -99   -99   -99
    45   -99  .073  .192   .36  .472   -99  1.61   .58    10    30     0   .06   6.5   -99   -99   -99
    60   -99  .073  .192   .36   .35   -99  1.61   .58    10    30     0   .06   6.5   -99   -99   -99
    90   -99  .128  .232  .361  .223   -99  1.61   .43    10    30     0   .04   6.5   -99   -99   -99
   120   -99  .143  .243  .359  .122   -99  1.62   .26    10    30     0   .03   6.5   -99   -99   -99
   150   -99  .138  .243   .36  .067   -99  1.62   .12    10    30     0   .01   6.5   -99   -99   -99
   180   -99  .138  .244  .361  .037   -99  1.62   .04    10    30     0     0   6.5   -99   -99   -99
   210   -99  .138  .244  .361   .02   -99  1.62   .01    10    30     0     0   6.5   -99   -99   -99

*IB00000008  IBSNAT      SL       150  DEFAULT - MEDIUM SANDY LOAM
@SITE        COUNTRY          LAT     LONG SCS FAMILY
 Generic     Generic           -99     -99 Generic
@ SCOM  SALB  SLU1  SLDR  SLRO  SLNF  SLPF  SMHB  SMPX  SMKE
   -99   .13     6    .5    70     1     1 IB001 IB001 IB001
@  SLB  SLMH  SLLL  SDUL  SSAT  SRGF  SSKS  SBDM  SLOC  SLCL  SLSI  SLCF  SLNI  SLHW  SLHB  SCEC  SADC
     5   -99  .052  .176  .359     1   -99  1.61    .7    10    30     0   .07   6.5   -99   -99   -99
    15   -99  .052  .176  .359     1   -99  1.61    .7    10    30     0   .07   6.5   -99   -99   -99
    30   -99  .052  .176  .359  .638   -99  1.61   .66    10    30     0   .07   6.5   -99   -99   -99
    45   -99  .073  .192   .36  .472   -99  1.61   .58    10    30     0   .06   6.5   -99   -99   -99
    60   -99  .073  .192   .36   .35   -99  1.61   .58    10    30     0   .06   6.5   -99   -99   -99
    90   -99  .128  .232  .361  .223   -99  1.61   .43    10    30     0   .04   6.5   -99   -99   -99
   120   -99  .143  .243  .359  .122   -99  1.62   .26    10    30     0   .03   6.5   -99   -99   -99
   150   -99  .138  .243   .36  .067   -99  1.62   .12    10    30     0   .01   6.5   -99   -99   -99

*IB00000009  IBSNAT      SL        60  DEFAULT - SHALLOW SANDY LOAM
@SITE        COUNTRY          LAT     LONG SCS FAMILY
 Generic     Generic           -99     -99 Generic
@ SCOM  SALB  SLU1  SLDR  SLRO  SLNF  SLPF  SMHB  SMPX  SMKE
   -99   .13     6    .4    74     1     1 IB001 IB001 IB001
@  SLB  SLMH  SLLL  SDUL  SSAT  SRGF  SSKS  SBDM  SLOC  SLCL  SLSI  SLCF  SLNI  SLHW  SLHB  SCEC  SADC
     5   -99  .052  .176  .359     1   -99  1.61    .7    10    30     0   .07   6.5   -99   -99   -99
    15   -99  .052  .176  .359     1   -99  1.61    .7    10    30     0   .07   6.5   -99   -99   -99
    30   -99  .052  .176  .359  .638   -99  1.61   .66    10    30     0   .07   6.5   -99   -99   -99
    45   -99  .073  .192   .36  .472   -99  1.61   .58    10    30     0   .06   6.5   -99   -99   -99
    60   -99  .073  .192   .36   .35   -99  1.61   .58    10    30     0   .06   6.5   -99   -99   -99

*IB00000010  IBSNAT      S        210  DEFAULT - DEEP SAND
@SITE        COUNTRY          LAT     LONG SCS FAMILY
 Generic     Generic           -99     -99 Generic
@ SCOM  SALB  SLU1  SLDR  SLRO  SLNF  SLPF  SMHB  SMPX  SMKE
   -99   .15     4    .6    65     1     1 IB001 IB001 IB001
@  SLB  SLMH  SLLL  SDUL  SSAT  SRGF  SSKS  SBDM  SLOC  SLCL  SLSI  SLCF  SLNI  SLHW  SLHB  SCEC  SADC
     5   -99  .025  .096  .345     1   -99  1.66   .29     5     5     0   .03   6.5   -99   -99   -99
    15   -99  .025  .096  .345     1   -99  1.66   .29     5     5     0   .03   6.5   -99   -99   -99
    30   -99  .023  .097  .345  .638   -99  1.66   .28     5     5     0   .03   6.5   -99   -99   -99
    45   -99  .023  .097  .345  .472   -99  1.66   .24     5     5     0   .02   6.5   -99   -99   -99
    60   -99  .023  .097  .345   .35   -99  1.66   .24     5     5     0   .02   6.5   -99   -99   -99
    90   -99  .018  .091  .346  .223   -99  1.66   .18     5     5     0   .02   6.5   -99   -99   -99
   120   -99   .02  .095  .346  .122   -99  1.66   .11     5     5     0   .01   6.5   -99   -99   -99
   150   -99  .021  .091  .347  .067   -99  1.66   .05     5     5     0     0   6.5   -99   -99   -99
   180   -99  .021  .091  .347  .037   -99  1.66   .01     5     5     0     0   6.5   -99   -99   -99
   210   -99  .021  .091  .347   .02   -99  1.66     0     5     5     0     0   6.5   -99   -99   -99

*IB00000011  IBSNAT         S     150  DEFAULT - MEDIUM SAND
@SITE        COUNTRY          LAT     LONG SCS FAMILY
 Generic     Generic           -99     -99 Generic
@ SCOM  SALB  SLU1  SLDR  SLRO  SLNF  SLPF  SMHB  SMPX  SMKE
   -99   .15     4    .6    70     1     1 IB001 IB001 IB001
@  SLB  SLMH  SLLL  SDUL  SSAT  SRGF  SSKS  SBDM  SLOC  SLCL  SLSI  SLCF  SLNI  SLHW  SLHB  SCEC  SADC
     5   -99  .025  .096  .345     1   -99  1.66   .29     5     5     0   .03   6.5   -99   -99   -99
    15   -99  .025  .096  .345     1   -99  1.66   .29     5     5     0   .03   6.5   -99   -99   -99
    30   -99  .023  .097  .345  .638   -99  1.66   .28     5     5     0   .03   6.5   -99   -99   -99
    45   -99  .023  .097  .345  .472   -99  1.66   .24     5     5     0   .02   6.5   -99   -99   -99
    60   -99  .023  .097  .345   .35   -99  1.66   .24     5     5     0   .02   6.5   -99   -99   -99
    90   -99  .018  .091  .346  .223   -99  1.66   .18     5     5     0   .02   6.5   -99   -99   -99
   120   -99   .02  .095  .346  .122   -99  1.66   .11     5     5     0   .01   6.5   -99   -99   -99
   150   -99  .021  .091  .347  .067   -99  1.66   .05     5     5     0     0   6.5   -99   -99   -99

*IB00000012  IBSNAT      S         60  DEFAULT - SHALLOW SAND
@SITE        COUNTRY          LAT     LONG SCS FAMILY
 Generic     Generic           -99     -99 Generic
@ SCOM  SALB  SLU1  SLDR  SLRO  SLNF  SLPF  SMHB  SMPX  SMKE
   -99   .15     4    .4    75     1     1 IB001 IB001 IB001
@  SLB  SLMH  SLLL  SDUL  SSAT  SRGF  SSKS  SBDM  SLOC  SLCL  SLSI  SLCF  SLNI  SLHW  SLHB  SCEC  SADC
     5   -99  .025  .096  .345     1   -99  1.66   .29     5     5     0   .03   6.5   -99   -99   -99
    15   -99  .025  .096  .345     1   -99  1.66   .29     5     5     0   .03   6.5   -99   -99   -99
    30   -99  .023  .097  .345  .638   -99  1.66   .28     5     5     0   .03   6.5   -99   -99   -99
    45   -99  .023  .097  .345  .472   -99  1.66   .24     5     5     0   .02   6.5   -99   -99   -99
    60   -99  .023  .097  .345   .35   -99  1.66   .24     5     5     0   .02   6.5   -99   -99   -99
!======================================================================================================
! End of Generic soil profiles
!======================================================================================================

*IBSB910015  SCS         S        180  Millhopper Fine Sand
@SITE        COUNTRY          LAT     LONG SCS FAMILY
 Gainesville USA             29.63  -82.37 Loamy,silic,hyperth Gross. Paleudults
@ SCOM  SALB  SLU1  SLDR  SLRO  SLNF  SLPF  SMHB  SMPX  SMKE
   -99   .18     5    .5    66     1   .92 IB001 IB001 IB001
@  SLB  SLMH  SLLL  SDUL  SSAT  SRGF  SSKS  SBDM  SLOC  SLCL  SLSI  SLCF  SLNI  SLHW  SLHB  SCEC  SADC
     5   -99  .023  .086   .23     1   7.4  1.36    .9    .9  11.8   -99   -99   5.3   -99   -99   -99
    15   -99  .023  .086   .23     1   7.4   1.4   .69    .9  11.8   -99   -99   5.4   -99   -99   -99
    30   -99  .023  .086   .23  .498  15.8  1.46   .28   4.6   6.4   -99   -99   5.7   -99   -99   -99
    45   -99  .023  .086   .23  .294    28  1.46    .2   5.8   5.4   -99   -99   5.8   -99   -99   -99
    60   -99  .023  .086   .23  .294    28  1.47    .2   5.8   5.4   -99   -99   5.8   -99   -99   -99
    90   -99  .021  .076   .23   .38  27.6  1.43   .09   9.6   4.2   -99   -99   5.9   -99   -99   -99
   120   -99   .02  .076   .23  .133  17.5  1.48   .03   9.6   4.2   -99   -99   5.9   -99   -99   -99
   150   -99  .027   .13   .23  .062    .3  1.57   .03   8.3   3.6   -99   -99   5.9   -99   -99   -99
   180   -99   .07  .258   .36  .031    .1  1.79   .03   8.3   3.6   -99   -99   5.9   -99   -99   -99

*IBSG910015  SCS         S        180  Millhopper Fine Sand
@SITE        COUNTRY          LAT     LONG SCS FAMILY
 Gainesville USA             29.63  -82.37 Loamy,silic,hyperth Gross. Paleudults
@ SCOM  SALB  SLU1  SLDR  SLRO  SLNF  SLPF  SMHB  SMPX  SMKE
   -99   .18     5    .5    66     1     1 IB001 IB001 IB001
@  SLB  SLMH  SLLL  SDUL  SSAT  SRGF  SSKS  SBDM  SLOC  SLCL  SLSI  SLCF  SLNI  SLHW  SLHB  SCEC  SADC
     5   -99  .023  .086   .23     1   7.4  1.36    .9    .9  11.8   -99   -99   5.3   -99   -99   -99
    15   -99  .023  .086   .23     1   7.4   1.4   .69    .9  11.8   -99   -99   5.4   -99   -99   -99
    30   -99  .023  .086   .23  .498  15.8  1.46   .28   4.6   6.4   -99   -99   5.7   -99   -99   -99
    45   -99  .023  .086   .23  .294    28  1.46    .2   5.8   5.4   -99   -99   5.8   -99   -99   -99
    60   -99  .023  .086   .23  .294    28  1.47    .2   5.8   5.4   -99   -99   5.8   -99   -99   -99
    90   -99  .021  .076   .23   .38  27.6  1.43   .09   9.6   4.2   -99   -99   5.9   -99   -99   -99
   120   -99   .02  .076   .23  .133  17.5  1.48   .03   9.6   4.2   -99   -99   5.9   -99   -99   -99
   150   -99  .027   .13   .23  .062    .3  1.57   .03   8.3   3.6   -99   -99   5.9   -99   -99   -99
   180   -99   .07  .258   .36  .031    .1  1.79   .03   8.3   3.6   -99   -99   5.9   -99   -99   -99

*IBSB910009  IBSNAT      -99      136  Norfolk Sandy Clay Loam (
@SITE        COUNTRY          LAT     LONG SCS FAMILY
 -99         USA               -99     -99 Fine loamy,silic.,therm. Typic Paleudults
@ SCOM  SALB  SLU1  SLDR  SLRO  SLNF  SLPF  SMHB  SMPX  SMKE
   -99   .14     3   .23    60     1   .95 IB001 IB001 IB001
@  SLB  SLMH  SLLL  SDUL  SSAT  SRGF  SSKS  SBDM  SLOC  SLCL  SLSI  SLCF  SLNI  SLHW  SLHB  SCEC  SADC
     5   -99  .042  .169  .392     1   -99     0     0   -99   -99   -99   -99   -99   -99   -99   -99
    15   -99  .042  .169  .392     1   -99     0     0   -99   -99   -99   -99   -99   -99   -99   -99
    25   -99  .042  .169  .392  .779   -99     0     0   -99   -99   -99   -99   -99   -99   -99   -99
    33   -99  .044  .177  .358  .349   -99     0     0   -99   -99   -99   -99   -99   -99   -99   -99
    46   -99  .056  .165  .396  .209   -99     0     0   -99   -99   -99   -99   -99   -99   -99   -99
    61   -99   .15  .291  .377   .07   -99     0     0   -99   -99   -99   -99   -99   -99   -99   -99
    76   -99   .15  .291  .377   .07   -99     0     0   -99   -99   -99   -99   -99   -99   -99   -99
   106   -99   .15  .291  .377  .017   -99     0     0   -99   -99   -99   -99   -99   -99   -99   -99
   136   -99   .15  .291  .377     0   -99     0     0   -99   -99   -99   -99   -99   -99   -99   -99

*IBSB910017  SCS         -99      203  Orangeburg Sandy Loam
@SITE        COUNTRY          LAT     LONG SCS FAMILY
 Quincy      USA              30.6   -86.4 Loamy,silic,hyperth Gross. Paleud(17)
@ SCOM  SALB  SLU1  SLDR  SLRO  SLNF  SLPF  SMHB  SMPX  SMKE
   -99   .13     9   .27    84     1   .97 IB001 IB001 IB001
@  SLB  SLMH  SLLL  SDUL  SSAT  SRGF  SSKS  SBDM  SLOC  SLCL  SLSI  SLCF  SLNI  SLHW  SLHB  SCEC  SADC
     5   -99  .125  .198  .294     1   -99  1.49  1.73   -99   -99   -99   -99   -99   -99   -99   -99
    15   -99  .125  .198  .294  .874   -99  1.49  1.73   -99   -99   -99   -99   -99   -99   -99   -99
    25   -99  .125  .198  .294  .874   -99  1.49  1.73   -99   -99   -99   -99   -99   -99   -99   -99
    34   -99  .117  .226  .323  .351   -99  1.41    .4   -99   -99   -99   -99   -99   -99   -99   -99
    43   -99  .117  .226  .323  .351   -99  1.41    .4   -99   -99   -99   -99   -99   -99   -99   -99
    53   -99  .138   .25  .332   .31   -99  1.44    .2   -99   -99   -99   -99   -99   -99   -99   -99
    64   -99  .138   .25  .332   .31   -99  1.44    .2   -99   -99   -99   -99   -99   -99   -99   -99
   102   -99  .167  .281  .331  .302   -99  1.57   .14   -99   -99   -99   -99   -99   -99   -99   -99
   145   -99  .182  .291  .334  .077   -99  1.59   .16   -99   -99   -99   -99   -99   -99   -99   -99
   175   -99  .162  .272   .32  .036   -99  1.61   .09   -99   -99   -99   -99   -99   -99   -99   -99
   203   -99  .154  .263  .319  .006   -99  1.58   .03   -99   -99   -99   -99   -99   -99   -99   -99

*IBSB910026  SCS         -99      180  Ida Silt Loam
@SITE        COUNTRY          LAT     LONG SCS FAMILY
 Castana     USA              42.2   -93.7 Ida Silt Loam
@ SCOM  SALB  SLU1  SLDR  SLRO  SLNF  SLPF  SMHB  SMPX  SMKE
   -99   .12     6    .3    60     1     1 IB001 IB001 IB001
@  SLB  SLMH  SLLL  SDUL  SSAT  SRGF  SSKS  SBDM  SLOC  SLCL  SLSI  SLCF  SLNI  SLHW  SLHB  SCEC  SADC
     5   -99  .135   .29  .485     1   -99     0     0   -99   -99   -99   -99   -99   -99   -99   -99
    15   -99  .135   .29  .485     1   -99     0     0   -99   -99   -99   -99   -99   -99   -99   -99
    30   -99  .135   .29  .485  .175   -99     0     0   -99   -99   -99   -99   -99   -99   -99   -99
    45   -99  .106  .228  .514  .138   -99     0     0   -99   -99   -99   -99   -99   -99   -99   -99
    60   -99  .106  .228  .514  .138   -99     0     0   -99   -99   -99   -99   -99   -99   -99   -99
    90   -99  .105  .254  .517  .188   -99     0     0   -99   -99   -99   -99   -99   -99   -99   -99
   120   -99  .133   .29  .507   .25   -99     0     0   -99   -99   -99   -99   -99   -99   -99   -99
   150   -99  .108  .283  .505  .213   -99     0     0   -99   -99   -99   -99   -99   -99   -99   -99
   180   -99  .108  .291  .542    .1   -99     0     0   -99   -99   -99   -99   -99   -99   -99   -99

*IBSB910027  Castana,mKJ SIL      225  Ida Silt Loam
@SITE        COUNTRY          LAT     LONG SCS FAMILY
 -99         -99               -99     -99 Ida Silt Loam
@ SCOM  SALB  SLU1  SLDR  SLRO  SLNF  SLPF  SMHB  SMPX  SMKE
   -99   .12   9.8   .55    60     1     1 IB001 IB001 IB001
@  SLB  SLMH  SLLL  SDUL  SSAT  SRGF  SSKS  SBDM  SLOC  SLCL  SLSI  SLCF  SLNI  SLHW  SLHB  SCEC  SADC
     5   -99  .098   .26  .485     1  14.5  1.29     0  14.1  51.9   -99   -99   8.1     1   -99   -99
    15   -99  .098   .26  .485     1  14.5  1.29     0  14.1  51.9   -99   -99   8.1     1   -99   -99
    45   -99  .098  .248    .5  .257    16  1.24     0  11.5  53.3   -99   -99   8.1     1   -99   -99
    75   -99  .093   .23  .516  .263  23.1  1.22     0  10.2  57.7   -99   -99   8.3     1   -99   -99
   105   -99  .095  .235  .512    .3  23.1  1.23     0  13.5  50.9   -99   -99   8.3     1   -99   -99
   135   -99  .098  .235  .506    .3    16  1.23     0   8.4  55.4   -99   -99   8.4     1   -99   -99
   165   -99  .088  .223  .524    .3   9.7  1.24     0  10.6    51   -99   -99   8.4     1   -99   -99
   195   -99   .08   .22  .551    .3   8.2  1.25     0  10.3  53.1   -99   -99   8.3     1   -99   -99
   225   -99  .083  .223  .547    .3   8.7  1.25     0   9.6  52.8   -99   -99   8.3    .2   -99   -99
!SOIL FROM MIGUEL CALMON, MODIFIED BY KJB, SLIGHTLY LOWER LL, NEW WRL

*IBSB910055  Troup SCS   -99      190  TROUP FINE SAND
@SITE        COUNTRY          LAT     LONG SCS FAMILY
 Jackson CO  USA               -99     -99 TROUP, SCS JACKSON CO, GROSSARENIC PALEUDULT, L,
@ SCOM  SALB  SLU1  SLDR  SLRO  SLNF  SLPF  SMHB  SMPX  SMKE
   -99   .13   6.2    .6    76     1   .92 SA001 SA001 SA001
@  SLB  SLMH  SLLL  SDUL  SSAT  SRGF  SSKS  SBDM  SLOC  SLCL  SLSI  SLCF  SLNI  SLHW  SLHB  SCEC  SADC
     5   -99  .033  .105  .314     1   -99  1.56   .64   -99   -99   -99   -99   5.8   -99   -99   -99
    15   -99  .033  .105  .314     1   -99  1.56   .64   -99   -99   -99   -99   5.8   -99   -99   -99
    30   -99  .031  .099  .313  .927   -99  1.56   .19   -99   -99   -99   -99   5.9   -99   -99   -99
    45   -99  .031  .099  .313  .229   -99  1.56   .19   -99   -99   -99   -99   5.9   -99   -99   -99
    60   -99  .031  .099  .313   .06   -99  1.56   .19   -99   -99   -99   -99   5.9   -99   -99   -99
    90   -99  .029  .092  .315  .016   -99   1.6   .05   -99   -99   -99   -99   5.4   -99   -99   -99
   120   -99  .029  .092  .315  .011   -99   1.6   .05   -99   -99   -99   -99   5.4   -99   -99   -99
   145   -99   .03  .096  .316  .006   -99   1.6   .04   -99   -99   -99   -99   5.1   -99   -99   -99
   167   -99  .047  .151  .357     0   -99  1.56    .1   -99   -99   -99   -99   5.2   -99   -99   -99
   190   -99  .047  .151  .357     0   -99  1.56    .1   -99   -99   -99   -99   5.2   -99   -99   -99

*IBPN910015  SCS         S        180  Millhopper Fine Sand
@SITE        COUNTRY          LAT     LONG SCS FAMILY
 Gainesville USA             29.63  -82.37 Loamy,silic,hyperth Gross. Paleudults
@ SCOM  SALB  SLU1  SLDR  SLRO  SLNF  SLPF  SMHB  SMPX  SMKE
   -99   .18     5    .5    66     1   .92 IB001 IB001 IB001
@  SLB  SLMH  SLLL  SDUL  SSAT  SRGF  SSKS  SBDM  SLOC  SLCL  SLSI  SLCF  SLNI  SLHW  SLHB  SCEC  SADC
     5   -99  .023  .086   .23     1   7.4  1.36    .9    .9  11.8   -99   -99   -99   -99   -99   -99
    15   -99  .023  .086   .23     1   7.4   1.4   .69    .9  11.8   -99   -99   -99   -99   -99   -99
    30   -99  .023  .086   .23   .55  15.8  1.46   .28   4.6   6.4   -99   -99   -99   -99   -99   -99
    45   -99  .023  .086   .23   .32    28  1.46    .2   5.8   5.4   -99   -99   -99   -99   -99   -99
    60   -99  .023  .086   .23   .32    28  1.47    .2   5.8   5.4   -99   -99   -99   -99   -99   -99
    90   -99  .021  .076   .23   .38  27.6  1.43   .09   9.6   4.2   -99   -99   -99   -99   -99   -99
   120   -99   .02  .076   .23    .4  17.5  1.48   .03   9.6   4.2   -99   -99   -99   -99   -99   -99
   150   -99  .027   .13   .23    .3    .3  1.57   .03   8.3   3.6   -99   -99   -99   -99   -99   -99