*SOILS: General DSSAT Soil Input File
! DSSAT v4.6; 07/01/2013
!
! Standard Soil Profiles
!
! The following generic information was developed by A.J. Gijsman:
!
! - BD was estimated as BD = 100 / (SOM% / 0.224 + (100 - SOM%) / mineral BD)  
!   (Adams, 1973; Rawls and Brakensiek, 1985).
! - LL and DUL are according to Saxton et al., 1986.
! - SAT was taken as a fraction of porosity (Dalgliesh and Foale, 1998):
!   0.93 for soil classes S, SL and LS; 0.95 for soil classes L, SIL, SI,
!   SCL and SC; and 0.97 for soil classes C, CL, SIC and SICL.
!   For this, porosity was estimated as: POR = 1 - BD / APD (in which APD
!   is the adjusted particle density, i.e. corrected for SOM; Baumer and Rice, 1988).
! - The ranges of LL and DUL values were calculated by stepping through the
!   complete texture triangle in steps of 1% sand, 1% silt and 1% clay (>5000 
!   combinations), but with the texture limitations that Saxton set for his method
!   taken into consideration. For SAT, these limitations do not hold, as this was
!   based on POR and not on Saxton. See Gijsman et al., 2002.
! - The root growth distribution function SRGF was was calculated as:
!   SRGF = 1 * EXP(-0.02 * LAYER_CENTER); SRGF was set 1 for LAYER_BOTTOM <= 15.
!
! SOIL CLASS       BD                LL               DUL               SAT
! ========== =============     =============     =============     =============
!   C        1.129 - 1.512     0.220 - 0.346     0.330 - 0.467     0.413 - 0.488
!   CL       1.243 - 1.502     0.156 - 0.218     0.282 - 0.374     0.417 - 0.512
!   L        1.245 - 1.483     0.083 - 0.156     0.222 - 0.312     0.415 - 0.501
!   LS       1.353 - 1.629     0.059 - 0.110     0.137 - 0.185     0.355 - 0.416
!   S        1.446 - 1.574     0.055 - 0.085     0.123 - 0.158     0.374 - 0.400
!   SC       1.501 - 1.593     0.195 - 0.294     0.276 - 0.389     0.376 - 0.409
!   SCL      1.475 - 1.636     0.132 - 0.191     0.213 - 0.304     0.360 - 0.418
!   SI       0.978 - 1.464     0.096 - 0.099     0.299 - 0.307     0.442 - 0.488
!   SIC      1.307 - 1.446     0.224 - 0.326     0.379 - 0.456     0.455 - 0.489
!   SICL     1.248 - 1.464     0.155 - 0.219     0.324 - 0.392     0.448 - 0.511
!   SIL      0.968 - 1.464     0.082 - 0.152     0.240 - 0.333     0.439 - 0.547
!   SL       1.142 - 1.647     0.066 - 0.133     0.164 - 0.243     0.348 - 0.499
!
!======================================================================================================
! Start of Generic soil profiles
!======================================================================================================
!
! The 12 Generic soils for SOIL.SOL, as estimated by Arjan Gijsman:
!
! - LL, DUL are according to the Nearest Neighbor method (Jagtap et al, 2004)
! - Ksat at -99 
! - BD according to Gijsman et al (2002)
! - SAT based on the APSRU manual (Dalgliesh and Foale, 1998); i.e. 93-97% of porosity
!   depending on the soil type) in which porosity is according to Baumer and Rice (1988).
!
! References
! Adams W.A. 1973. The effect of organic matter on the bulk and true densities of some
!   uncultivated podzolic soils. J. Soil Science 24, 10-17.
! Baumer O.W. and Rice J.W. 1988. Methods to predict soil input data for DRAINMOD. 
!   Am. Soc. Agr. Eng. Paper 88-2564
! Dalgliesh, N.P., and M.A. Foale. 1998. Soil Matters – monitoring soil water and nitrogen
!   in dryland farming. CSIRO, Agricultural Production Systems Research Unit, 
!   Toowoomba, Queensland, Australia. 122 pp.
! Gijsman A.J., Jagtap S.S., Jones J.W. 2002. Wading through a swamp of complete confusion: 
!   how to choose a method for estimating soil water retention parameters for crop models. 
!   European Journal of Agronomy, 18: 75-105.
! Jagtap S.S., Lal U., Jones J.W., Gijsman A.J., Ritchie J.T. 2004. A dynamic nearest-neighbor
!   method for estimating soil water parameters. Transactions of ASAE 47: 1437-1444
! Rawls W.J. and Brakensiek D.L. 1985. Prediction of soil water properties for hydrologic
!   modeling. In: Jones, E.B. and Ward, T.J. (Eds.), Proc. Symp. Watershed Management
!   in the Eighties. April 30-May 1, 1985, Denver, CO. Am. Soc. Civil Eng., 
!   New York, NY. pp.293-299.
! Saxton K.E., Rawls W.J., Romberger J.S., Papendick R.I. 1986. Estimating generalized soil-water
!   characteristics from texture. Soil Sci. Soc. Am. J. 50, 1031-1036
!
!======================================================================================================

*IB00000001  IBSNAT      SIC     210 DEFAULT - DEEP SILTY CLAY
@SITE        COUNTRY          LAT     LONG SCS FAMILY
 Generic     Generic           -99    -99  Generic
@ SCOM  SALB  SLU1  SLDR  SLRO  SLNF  SLPF  SMHB  SMPX  SMKE
   -99  0.11   6.0  0.30  85.0  1.00  1.00 IB001 IB001 IB001
@  SLB  SLMH  SLLL  SDUL  SSAT  SRGF  SSKS  SBDM  SLOC  SLCL  SLSI  SLCF  SLNI  SLHW  SLHB  SCEC  SADC
     5   -99 0.228 0.385 0.481 1.000   -99  1.30  1.75  50.0  45.0   0.0 0.170   6.5   -99   -99   -99 
    15   -99 0.228 0.385 0.481 1.000   -99  1.30  1.75  50.0  45.0   0.0 0.170   6.5   -99   -99   -99 
    30   -99 0.249 0.406 0.482 0.638   -99  1.30  1.60  50.0  45.0   0.0 0.170   6.5   -99   -99   -99 
    45   -99 0.249 0.406 0.465 0.472   -99  1.35  1.45  50.0  45.0   0.0 0.140   6.5   -99   -99   -99 
    60   -99 0.249 0.406 0.465 0.350   -99  1.35  1.45  50.0  45.0   0.0 0.140   6.5   -99   -99   -99 
    90   -99 0.308 0.456 0.468 0.223   -99  1.35  1.10  50.0  45.0   0.0 0.110   6.5   -99   -99   -99 
   120   -99 0.207 0.341 0.452 0.122   -99  1.40  0.65  50.0  45.0   0.0 0.060   6.5   -99   -99   -99 
   150   -99 0.243 0.365 0.455 0.067   -99  1.40  0.30  50.0  45.0   0.0 0.030   6.5   -99   -99   -99 
   180   -99 0.259 0.361 0.457 0.037   -99  1.40  0.10  50.0  45.0   0.0 0.010   6.5   -99   -99   -99 
   210   -99 0.259 0.361 0.457 0.020   -99  1.40  0.01  50.0  45.0   0.0 0.000   6.5   -99   -99   -99 

*IB00000002  IBSNAT      SIC     150 DEFAULT - MEDIUM SILTY CLAY
@SITE        COUNTRY          LAT     LONG SCS FAMILY
 Generic     Generic           -99    -99  Generic
@ SCOM  SALB  SLU1  SLDR  SLRO  SLNF  SLPF  SMHB  SMPX  SMKE
   -99  0.11   6.0  0.20  87.0  1.00  1.00 IB001 IB001 IB001
@  SLB  SLMH  SLLL  SDUL  SSAT  SRGF  SSKS  SBDM  SLOC  SLCL  SLSI  SLCF  SLNI  SLHW  SLHB  SCEC  SADC
     5   -99 0.228 0.385 0.463 1.000   -99  1.35  1.74  50.0  45.0   0.0 0.170   6.5   -99   -99   -99 
    15   -99 0.228 0.385 0.463 1.000   -99  1.35  1.74  50.0  45.0   0.0 0.170   6.5   -99   -99   -99 
    30   -99 0.228 0.385 0.459 0.638   -99  1.36  1.66  50.0  45.0   0.0 0.170   6.5   -99   -99   -99 
    45   -99 0.249 0.406 0.461 0.472   -99  1.36  1.45  50.0  45.0   0.0 0.140   6.5   -99   -99   -99 
    60   -99 0.249 0.406 0.461 0.350   -99  1.36  1.45  50.0  45.0   0.0 0.140   6.5   -99   -99   -99 
    90   -99 0.308 0.449 0.460 0.223   -99  1.37  1.09  50.0  45.0   0.0 0.110   6.5   -99   -99   -99 
   120   -99 0.207 0.341 0.460 0.122   -99  1.38  0.65  50.0  45.0   0.0 0.060   6.5   -99   -99   -99 
   150   -99 0.256 0.373 0.463 0.067   -99  1.38  0.29  50.0  45.0   0.0 0.030   6.5   -99   -99   -99 

*IB00000003  IBSNAT      SIC      60 DEFAULT - SHALLOW SILTY CLAY
@SITE        COUNTRY          LAT     LONG SCS FAMILY
 Generic     Generic           -99    -99  Generic
@ SCOM  SALB  SLU1  SLDR  SLRO  SLNF  SLPF  SMHB  SMPX  SMKE
   -99  0.11   6.0  0.10  89.0  1.00  1.00 IB001 IB001 IB001
@  SLB  SLMH  SLLL  SDUL  SSAT  SRGF  SSKS  SBDM  SLOC  SLCL  SLSI  SLCF  SLNI  SLHW  SLHB  SCEC  SADC
     5   -99 0.228 0.385 0.463 1.000   -99  1.35  1.74  50.0  45.0   0.0 0.170   6.5   -99   -99   -99 
    15   -99 0.228 0.385 0.463 1.000   -99  1.35  1.74  50.0  45.0   0.0 0.170   6.5   -99   -99   -99 
    30   -99 0.228 0.385 0.459 0.638   -99  1.36  1.66  50.0  45.0   0.0 0.170   6.5   -99   -99   -99 
    45   -99 0.249 0.406 0.461 0.472   -99  1.36  1.45  50.0  45.0   0.0 0.140   6.5   -99   -99   -99 
    60   -99 0.249 0.406 0.461 0.350   -99  1.36  1.45  50.0  45.0   0.0 0.140   6.5   -99   -99   -99 

*IB00000004  IBSNAT      SIL     210 DEFAULT - DEEP SILTY LOAM
@SITE        COUNTRY          LAT     LONG SCS FAMILY
 Generic     Generic           -99    -99  Generic
@ SCOM  SALB  SLU1  SLDR  SLRO  SLNF  SLPF  SMHB  SMPX  SMKE
   -99  0.12   6.0  0.40  77.0  1.00  1.00 IB001 IB001 IB001
@  SLB  SLMH  SLLL  SDUL  SSAT  SRGF  SSKS  SBDM  SLOC  SLCL  SLSI  SLCF  SLNI  SLHW  SLHB  SCEC  SADC
     5   -99 0.110 0.227 0.450 1.000   -99  1.37  1.16  10.0  60.0   0.0 0.120   6.5   -99   -99   -99 
    15   -99 0.110 0.227 0.450 1.000   -99  1.37  1.16  10.0  60.0   0.0 0.120   6.5   -99   -99   -99 
    30   -99 0.103 0.201 0.451 0.638   -99  1.37  1.10  10.0  60.0   0.0 0.110   6.5   -99   -99   -99 
    45   -99 0.099 0.193 0.452 0.472   -99  1.37  0.97  10.0  60.0   0.0 0.100   6.5   -99   -99   -99 
    60   -99 0.099 0.193 0.452 0.350   -99  1.37  0.97  10.0  60.0   0.0 0.100   6.5   -99   -99   -99 
    90   -99 0.088 0.173 0.450 0.223   -99  1.38  0.72  10.0  60.0   0.0 0.070   6.5   -99   -99   -99 
   120   -99 0.079 0.165 0.452 0.122   -99  1.38  0.43  10.0  60.0   0.0 0.040   6.5   -99   -99   -99 
   150   -99 0.086 0.178 0.450 0.067   -99  1.39  0.20  10.0  60.0   0.0 0.020   6.5   -99   -99   -99 
   190   -99 0.072 0.174 0.451 0.033   -99  1.39  0.06  10.0  60.0   0.0 0.010   6.5   -99   -99   -99 
   210   -99 0.072 0.174 0.452 0.018   -99  1.39  0.01  10.0  60.0   0.0 0.000   6.5   -99   -99   -99 

*IB00000005  IBSNAT      SIL     150 DEFAULT - MEDIUM SILTY LOAM
@SITE        COUNTRY          LAT     LONG SCS FAMILY
 Generic     Generic           -99    -99  Generic
@ SCOM  SALB  SLU1  SLDR  SLRO  SLNF  SLPF  SMHB  SMPX  SMKE
   -99  0.12   6.0  0.30  79.0  1.00  1.00 IB001 IB001 IB001
@  SLB  SLMH  SLLL  SDUL  SSAT  SRGF  SSKS  SBDM  SLOC  SLCL  SLSI  SLCF  SLNI  SLHW  SLHB  SCEC  SADC
     5   -99 0.110 0.227 0.450 1.000   -99  1.37  1.16  10.0  60.0   0.0 0.120   6.5   -99   -99   -99 
    15   -99 0.110 0.227 0.450 1.000   -99  1.37  1.16  10.0  60.0   0.0 0.120   6.5   -99   -99   -99 
    30   -99 0.103 0.201 0.451 0.638   -99  1.37  1.10  10.0  60.0   0.0 0.110   6.5   -99   -99   -99 
    45   -99 0.099 0.193 0.452 0.472   -99  1.37  0.97  10.0  60.0   0.0 0.100   6.5   -99   -99   -99 
    60   -99 0.099 0.193 0.452 0.350   -99  1.37  0.97  10.0  60.0   0.0 0.100   6.5   -99   -99   -99 
    90   -99 0.088 0.173 0.450 0.223   -99  1.38  0.72  10.0  60.0   0.0 0.070   6.5   -99   -99   -99 
   120   -99 0.079 0.165 0.452 0.122   -99  1.38  0.43  10.0  60.0   0.0 0.040   6.5   -99   -99   -99 
   150   -99 0.086 0.178 0.450 0.067   -99  1.39  0.20  10.0  60.0   0.0 0.020   6.5   -99   -99   -99 

*IB00000006  IBSNAT      SIL      60 DEFAULT - SHALLOW SILTY LOAM
@SITE        COUNTRY          LAT     LONG SCS FAMILY
 Generic     Generic           -99    -99  Generic
@ SCOM  SALB  SLU1  SLDR  SLRO  SLNF  SLPF  SMHB  SMPX  SMKE
   -99  0.12   6.0  0.20  81.0  1.00  1.00 IB001 IB001 IB001
@  SLB  SLMH  SLLL  SDUL  SSAT  SRGF  SSKS  SBDM  SLOC  SLCL  SLSI  SLCF  SLNI  SLHW  SLHB  SCEC  SADC
     5   -99 0.110 0.227 0.450 1.000   -99  1.37  1.16  10.0  60.0   0.0 0.120   6.5   -99   -99   -99 
    15   -99 0.110 0.227 0.450 1.000   -99  1.37  1.16  10.0  60.0   0.0 0.120   6.5   -99   -99   -99 
    30   -99 0.103 0.201 0.451 0.638   -99  1.37  1.10  10.0  60.0   0.0 0.110   6.5   -99   -99   -99 
    45   -99 0.099 0.193 0.452 0.472   -99  1.37  0.97  10.0  60.0   0.0 0.100   6.5   -99   -99   -99 
    60   -99 0.099 0.193 0.452 0.350   -99  1.37  0.97  10.0  60.0   0.0 0.100   6.5   -99   -99   -99 

*IB00000007  IBSNAT      SL      210 DEFAULT - DEEP SANDY LOAM
@SITE        COUNTRY          LAT     LONG SCS FAMILY
 Generic     Generic           -99    -99  Generic
@ SCOM  SALB  SLU1  SLDR  SLRO  SLNF  SLPF  SMHB  SMPX  SMKE
   -99  0.13   6.0  0.50  68.0  1.00  1.00 IB001 IB001 IB001
@  SLB  SLMH  SLLL  SDUL  SSAT  SRGF  SSKS  SBDM  SLOC  SLCL  SLSI  SLCF  SLNI  SLHW  SLHB  SCEC  SADC
     5   -99 0.052 0.176 0.359 1.000   -99  1.61  0.70  10.0  30.0   0.0 0.070   6.5   -99   -99   -99 
    15   -99 0.052 0.176 0.359 1.000   -99  1.61  0.70  10.0  30.0   0.0 0.070   6.5   -99   -99   -99 
    30   -99 0.052 0.176 0.359 0.638   -99  1.61  0.66  10.0  30.0   0.0 0.070   6.5   -99   -99   -99 
    45   -99 0.073 0.192 0.360 0.472   -99  1.61  0.58  10.0  30.0   0.0 0.060   6.5   -99   -99   -99 
    60   -99 0.073 0.192 0.360 0.350   -99  1.61  0.58  10.0  30.0   0.0 0.060   6.5   -99   -99   -99 
    90   -99 0.128 0.232 0.361 0.223   -99  1.61  0.43  10.0  30.0   0.0 0.040   6.5   -99   -99   -99 
   120   -99 0.143 0.243 0.359 0.122   -99  1.62  0.26  10.0  30.0   0.0 0.030   6.5   -99   -99   -99 
   150   -99 0.138 0.243 0.360 0.067   -99  1.62  0.12  10.0  30.0   0.0 0.010   6.5   -99   -99   -99 
   180   -99 0.138 0.244 0.361 0.037   -99  1.62  0.04  10.0  30.0   0.0 0.000   6.5   -99   -99   -99 
   210   -99 0.138 0.244 0.361 0.020   -99  1.62  0.01  10.0  30.0   0.0 0.000   6.5   -99   -99   -99 

*IB00000008  IBSNAT      SL      150 DEFAULT - MEDIUM SANDY LOAM
@SITE        COUNTRY          LAT     LONG SCS FAMILY
 Generic     Generic           -99    -99  Generic
@ SCOM  SALB  SLU1  SLDR  SLRO  SLNF  SLPF  SMHB  SMPX  SMKE
   -99  0.13   6.0  0.50  70.0  1.00  1.00 IB001 IB001 IB001
@  SLB  SLMH  SLLL  SDUL  SSAT  SRGF  SSKS  SBDM  SLOC  SLCL  SLSI  SLCF  SLNI  SLHW  SLHB  SCEC  SADC
     5   -99 0.052 0.176 0.359 1.000   -99  1.61  0.70  10.0  30.0   0.0 0.070   6.5   -99   -99   -99 
    15   -99 0.052 0.176 0.359 1.000   -99  1.61  0.70  10.0  30.0   0.0 0.070   6.5   -99   -99   -99 
    30   -99 0.052 0.176 0.359 0.638   -99  1.61  0.66  10.0  30.0   0.0 0.070   6.5   -99   -99   -99 
    45   -99 0.073 0.192 0.360 0.472   -99  1.61  0.58  10.0  30.0   0.0 0.060   6.5   -99   -99   -99 
    60   -99 0.073 0.192 0.360 0.350   -99  1.61  0.58  10.0  30.0   0.0 0.060   6.5   -99   -99   -99 
    90   -99 0.128 0.232 0.361 0.223   -99  1.61  0.43  10.0  30.0   0.0 0.040   6.5   -99   -99   -99 
   120   -99 0.143 0.243 0.359 0.122   -99  1.62  0.26  10.0  30.0   0.0 0.030   6.5   -99   -99   -99 
   150   -99 0.138 0.243 0.360 0.067   -99  1.62  0.12  10.0  30.0   0.0 0.010   6.5   -99   -99   -99 

*IB00000009  IBSNAT      SL       60 DEFAULT - SHALLOW SANDY LOAM
@SITE        COUNTRY          LAT     LONG SCS FAMILY
 Generic     Generic           -99    -99  Generic
@ SCOM  SALB  SLU1  SLDR  SLRO  SLNF  SLPF  SMHB  SMPX  SMKE
   -99  0.13   6.0  0.40  74.0  1.00  1.00 IB001 IB001 IB001
@  SLB  SLMH  SLLL  SDUL  SSAT  SRGF  SSKS  SBDM  SLOC  SLCL  SLSI  SLCF  SLNI  SLHW  SLHB  SCEC  SADC
     5   -99 0.052 0.176 0.359 1.000   -99  1.61  0.70  10.0  30.0   0.0 0.070   6.5   -99   -99   -99 
    15   -99 0.052 0.176 0.359 1.000   -99  1.61  0.70  10.0  30.0   0.0 0.070   6.5   -99   -99   -99 
    30   -99 0.052 0.176 0.359 0.638   -99  1.61  0.66  10.0  30.0   0.0 0.070   6.5   -99   -99   -99 
    45   -99 0.073 0.192 0.360 0.472   -99  1.61  0.58  10.0  30.0   0.0 0.060   6.5   -99   -99   -99 
    60   -99 0.073 0.192 0.360 0.350   -99  1.61  0.58  10.0  30.0   0.0 0.060   6.5   -99   -99   -99 

*IB00000010  IBSNAT      S       210 DEFAULT - DEEP SAND
@SITE        COUNTRY          LAT     LONG SCS FAMILY
 Generic     Generic           -99    -99  Generic
@ SCOM  SALB  SLU1  SLDR  SLRO  SLNF  SLPF  SMHB  SMPX  SMKE
   -99  0.15   4.0  0.60  65.0  1.00  1.00 IB001 IB001 IB001
@  SLB  SLMH  SLLL  SDUL  SSAT  SRGF  SSKS  SBDM  SLOC  SLCL  SLSI  SLCF  SLNI  SLHW  SLHB  SCEC  SADC
     5   -99 0.025 0.096 0.345 1.000   -99  1.66  0.29   5.0   5.0   0.0 0.030   6.5   -99   -99   -99 
    15   -99 0.025 0.096 0.345 1.000   -99  1.66  0.29   5.0   5.0   0.0 0.030   6.5   -99   -99   -99 
    30   -99 0.023 0.097 0.345 0.638   -99  1.66  0.28   5.0   5.0   0.0 0.030   6.5   -99   -99   -99 
    45   -99 0.023 0.097 0.345 0.472   -99  1.66  0.24   5.0   5.0   0.0 0.020   6.5   -99   -99   -99 
    60   -99 0.023 0.097 0.345 0.350   -99  1.66  0.24   5.0   5.0   0.0 0.020   6.5   -99   -99   -99 
    90   -99 0.018 0.091 0.346 0.223   -99  1.66  0.18   5.0   5.0   0.0 0.020   6.5   -99   -99   -99 
   120   -99 0.020 0.095 0.346 0.122   -99  1.66  0.11   5.0   5.0   0.0 0.010   6.5   -99   -99   -99 
   150   -99 0.021 0.091 0.347 0.067   -99  1.66  0.05   5.0   5.0   0.0 0.000   6.5   -99   -99   -99 
   180   -99 0.021 0.091 0.347 0.037   -99  1.66  0.01   5.0   5.0   0.0 0.000   6.5   -99   -99   -99 
   210   -99 0.021 0.091 0.347 0.020   -99  1.66  0.00   5.0   5.0   0.0 0.000   6.5   -99   -99   -99 

*IB00000011  IBSNAT      S       150 DEFAULT - MEDIUM SAND
@SITE        COUNTRY          LAT     LONG SCS FAMILY
 Generic     Generic           -99    -99  Generic
@ SCOM  SALB  SLU1  SLDR  SLRO  SLNF  SLPF  SMHB  SMPX  SMKE
   -99  0.15   4.0  0.50  70.0  1.00  1.00 IB001 IB001 IB001
@  SLB  SLMH  SLLL  SDUL  SSAT  SRGF  SSKS  SBDM  SLOC  SLCL  SLSI  SLCF  SLNI  SLHW  SLHB  SCEC  SADC
     5   -99 0.025 0.096 0.345 1.000   -99  1.66  0.29   5.0   5.0   0.0 0.030   6.5   -99   -99   -99 
    15   -99 0.025 0.096 0.345 1.000   -99  1.66  0.29   5.0   5.0   0.0 0.030   6.5   -99   -99   -99 
    30   -99 0.023 0.097 0.345 0.638   -99  1.66  0.28   5.0   5.0   0.0 0.030   6.5   -99   -99   -99 
    45   -99 0.023 0.097 0.345 0.472   -99  1.66  0.24   5.0   5.0   0.0 0.020   6.5   -99   -99   -99 
    60   -99 0.023 0.097 0.345 0.350   -99  1.66  0.24   5.0   5.0   0.0 0.020   6.5   -99   -99   -99 
    90   -99 0.018 0.091 0.346 0.223   -99  1.66  0.18   5.0   5.0   0.0 0.020   6.5   -99   -99   -99 
   120   -99 0.020 0.095 0.346 0.122   -99  1.66  0.11   5.0   5.0   0.0 0.010   6.5   -99   -99   -99 
   150   -99 0.021 0.091 0.347 0.067   -99  1.66  0.05   5.0   5.0   0.0 0.000   6.5   -99   -99   -99 

*IB00000012  IBSNAT      S        60 DEFAULT - SHALLOW SAND
@SITE        COUNTRY          LAT     LONG SCS FAMILY
 Generic     Generic           -99    -99  Generic
@ SCOM  SALB  SLU1  SLDR  SLRO  SLNF  SLPF  SMHB  SMPX  SMKE
   -99  0.15   4.0  0.40  75.0  1.00  1.00 IB001 IB001 IB001
@  SLB  SLMH  SLLL  SDUL  SSAT  SRGF  SSKS  SBDM  SLOC  SLCL  SLSI  SLCF  SLNI  SLHW  SLHB  SCEC  SADC
     5   -99 0.025 0.096 0.345 1.000   -99  1.66  0.29   5.0   5.0   0.0 0.030   6.5   -99   -99   -99 
    15   -99 0.025 0.096 0.345 1.000   -99  1.66  0.29   5.0   5.0   0.0 0.030   6.5   -99   -99   -99 
    30   -99 0.023 0.097 0.345 0.638   -99  1.66  0.28   5.0   5.0   0.0 0.030   6.5   -99   -99   -99 
    45   -99 0.023 0.097 0.345 0.472   -99  1.66  0.24   5.0   5.0   0.0 0.020   6.5   -99   -99   -99 
    60   -99 0.023 0.097 0.345 0.350   -99  1.66  0.24   5.0   5.0   0.0 0.020   6.5   -99   -99   -99 
!======================================================================================================
! End of Generic soil profiles
!======================================================================================================

*IBSB910015  SCS         -99     180 Millhopper Fine Sand
@SITE        COUNTRY          LAT     LONG SCS FAMILY
 Gainesville USA            29.630 -82.370 Loamy,silic,hyperth Gross. Paleudults
@ SCOM  SALB  SLU1  SLDR  SLRO  SLNF  SLPF  SMHB  SMPX  SMKE
   -99  0.18   5.0  0.50  66.0  1.00  0.92 IB001 IB001 IB001
@  SLB  SLMH  SLLL  SDUL  SSAT  SRGF  SSKS  SBDM  SLOC  SLCL  SLSI  SLCF  SLNI  SLHW  SLHB  SCEC  SADC
     5   -99 0.023 0.086 0.230 1.000  7.40  1.36  0.90   0.9  11.8   -99   -99   5.3   -99   -99   -99 
    15   -99 0.023 0.086 0.230 1.000  7.40  1.40  0.69   0.9  11.8   -99   -99   5.4   -99   -99   -99 
    30   -99 0.023 0.086 0.230 0.498 15.80  1.46  0.28   4.6   6.4   -99   -99   5.7   -99   -99   -99 
    45   -99 0.023 0.086 0.230 0.294 28.00  1.46  0.20   5.8   5.4   -99   -99   5.8   -99   -99   -99 
    60   -99 0.023 0.086 0.230 0.294 28.00  1.47  0.20   5.8   5.4   -99   -99   5.8   -99   -99   -99 
    90   -99 0.021 0.076 0.230 0.380 27.60  1.43  0.09   9.6   4.2   -99   -99   5.9   -99   -99   -99 
   120   -99 0.020 0.076 0.230 0.133 17.50  1.48  0.03   9.6   4.2   -99   -99   5.9   -99   -99   -99 
   150   -99 0.027 0.130 0.230 0.062  0.30  1.57  0.03   8.3   3.6   -99   -99   5.9   -99   -99   -99 
   180   -99 0.070 0.258 0.360 0.031  0.10  1.79  0.03   8.3   3.6   -99   -99   5.9   -99   -99   -99 

*IBSB910009  IBSNAT      -99     136 Norfolk Sandy Clay Loam (
@SITE        COUNTRY          LAT     LONG SCS FAMILY
 -99         USA               -99    -99  Fine loamy,silic.,therm. Typic Paleudults
@ SCOM  SALB  SLU1  SLDR  SLRO  SLNF  SLPF  SMHB  SMPX  SMKE
   -99  0.14   3.0  0.23  60.0  1.00  0.95 IB001 IB001 IB001
@  SLB  SLMH  SLLL  SDUL  SSAT  SRGF  SSKS  SBDM  SLOC  SLCL  SLSI  SLCF  SLNI  SLHW  SLHB  SCEC  SADC
     5   -99 0.042 0.169 0.392 1.000   -99  0.00  0.00   -99   -99   -99   -99   -99   -99   -99   -99 
    15   -99 0.042 0.169 0.392 1.000   -99  0.00  0.00   -99   -99   -99   -99   -99   -99   -99   -99 
    25   -99 0.042 0.169 0.392 0.779   -99  0.00  0.00   -99   -99   -99   -99   -99   -99   -99   -99 
    33   -99 0.044 0.177 0.358 0.349   -99  0.00  0.00   -99   -99   -99   -99   -99   -99   -99   -99 
    46   -99 0.056 0.165 0.396 0.209   -99  0.00  0.00   -99   -99   -99   -99   -99   -99   -99   -99 
    61   -99 0.150 0.291 0.377 0.070   -99  0.00  0.00   -99   -99   -99   -99   -99   -99   -99   -99 
    76   -99 0.150 0.291 0.377 0.070   -99  0.00  0.00   -99   -99   -99   -99   -99   -99   -99   -99 
   106   -99 0.150 0.291 0.377 0.017   -99  0.00  0.00   -99   -99   -99   -99   -99   -99   -99   -99 
   136   -99 0.150 0.291 0.377 0.000   -99  0.00  0.00   -99   -99   -99   -99   -99   -99   -99   -99 

*IBSB910017  SCS         -99     203 Orangeburg Sandy Loam
@SITE        COUNTRY          LAT     LONG SCS FAMILY
 Quincy      USA            30.600 -86.400 Loamy,silic,hyperth Gross. Paleud(17)
@ SCOM  SALB  SLU1  SLDR  SLRO  SLNF  SLPF  SMHB  SMPX  SMKE
   -99  0.13   9.0  0.27  84.0  1.00  0.97 IB001 IB001 IB001
@  SLB  SLMH  SLLL  SDUL  SSAT  SRGF  SSKS  SBDM  SLOC  SLCL  SLSI  SLCF  SLNI  SLHW  SLHB  SCEC  SADC
     5   -99 0.125 0.198 0.294 1.000   -99  1.49  1.73   -99   -99   -99   -99   -99   -99   -99   -99 
    15   -99 0.125 0.198 0.294 0.874   -99  1.49  1.73   -99   -99   -99   -99   -99   -99   -99   -99 
    25   -99 0.125 0.198 0.294 0.874   -99  1.49  1.73   -99   -99   -99   -99   -99   -99   -99   -99 
    34   -99 0.117 0.226 0.323 0.351   -99  1.41  0.40   -99   -99   -99   -99   -99   -99   -99   -99 
    43   -99 0.117 0.226 0.323 0.351   -99  1.41  0.40   -99   -99   -99   -99   -99   -99   -99   -99 
    53   -99 0.138 0.250 0.332 0.310   -99  1.44  0.20   -99   -99   -99   -99   -99   -99   -99   -99 
    64   -99 0.138 0.250 0.332 0.310   -99  1.44  0.20   -99   -99   -99   -99   -99   -99   -99   -99 
   102   -99 0.167 0.281 0.331 0.302   -99  1.57  0.14   -99   -99   -99   -99   -99   -99   -99   -99 
   145   -99 0.182 0.291 0.334 0.077   -99  1.59  0.16   -99   -99   -99   -99   -99   -99   -99   -99 
   175   -99 0.162 0.272 0.320 0.036   -99  1.61  0.09   -99   -99   -99   -99   -99   -99   -99   -99 
   203   -99 0.154 0.263 0.319 0.006   -99  1.58  0.03   -99   -99   -99   -99   -99   -99   -99   -99 

*IBSB910026  SCS         -99     180 Ida Silt Loam
@SITE        COUNTRY          LAT     LONG SCS FAMILY
 Castana     USA            42.200 -93.700 Ida Silt Loam
@ SCOM  SALB  SLU1  SLDR  SLRO  SLNF  SLPF  SMHB  SMPX  SMKE
   -99  0.12   6.0  0.30  60.0  1.00  1.00 IB001 IB001 IB001
@  SLB  SLMH  SLLL  SDUL  SSAT  SRGF  SSKS  SBDM  SLOC  SLCL  SLSI  SLCF  SLNI  SLHW  SLHB  SCEC  SADC
     5   -99 0.135 0.290 0.485 1.000   -99  0.00  0.00   -99   -99   -99   -99   -99   -99   -99   -99 
    15   -99 0.135 0.290 0.485 1.000   -99  0.00  0.00   -99   -99   -99   -99   -99   -99   -99   -99 
    30   -99 0.135 0.290 0.485 0.175   -99  0.00  0.00   -99   -99   -99   -99   -99   -99   -99   -99 
    45   -99 0.106 0.228 0.514 0.138   -99  0.00  0.00   -99   -99   -99   -99   -99   -99   -99   -99 
    60   -99 0.106 0.228 0.514 0.138   -99  0.00  0.00   -99   -99   -99   -99   -99   -99   -99   -99 
    90   -99 0.105 0.254 0.517 0.188   -99  0.00  0.00   -99   -99   -99   -99   -99   -99   -99   -99 
   120   -99 0.133 0.290 0.507 0.250   -99  0.00  0.00   -99   -99   -99   -99   -99   -99   -99   -99 
   150   -99 0.108 0.283 0.505 0.213   -99  0.00  0.00   -99   -99   -99   -99   -99   -99   -99   -99 
   180   -99 0.108 0.291 0.542 0.100   -99  0.00  0.00   -99   -99   -99   -99   -99   -99   -99   -99 

*IBSB910027  Castana,mKJ SIL     225 Ida Silt Loam
@SITE        COUNTRY          LAT     LONG SCS FAMILY
 -99         -99               -99    -99  Ida Silt Loam
@ SCOM  SALB  SLU1  SLDR  SLRO  SLNF  SLPF  SMHB  SMPX  SMKE
   -99  0.12   9.8  0.55  60.0  1.00  1.00 IB001 IB001 IB001
@  SLB  SLMH  SLLL  SDUL  SSAT  SRGF  SSKS  SBDM  SLOC  SLCL  SLSI  SLCF  SLNI  SLHW  SLHB  SCEC  SADC
     5   -99 0.098 0.260 0.485 1.000 14.50  1.29  0.00  14.1  51.9   -99   -99   8.1   1.0   -99   -99 
    15   -99 0.098 0.260 0.485 1.000 14.50  1.29  0.00  14.1  51.9   -99   -99   8.1   1.0   -99   -99 
    45   -99 0.098 0.248 0.500 0.257 16.00  1.24  0.00  11.5  53.3   -99   -99   8.1   1.0   -99   -99 
    75   -99 0.093 0.230 0.516 0.263 23.10  1.22  0.00  10.2  57.7   -99   -99   8.3   1.0   -99   -99 
   105   -99 0.095 0.235 0.512 0.300 23.10  1.23  0.00  13.5  50.9   -99   -99   8.3   1.0   -99   -99 
   135   -99 0.098 0.235 0.506 0.300 16.00  1.23  0.00   8.4  55.4   -99   -99   8.4   1.0   -99   -99 
   165   -99 0.088 0.223 0.524 0.300  9.70  1.24  0.00  10.6  51.0   -99   -99   8.4   1.0   -99   -99 
   195   -99 0.080 0.220 0.551 0.300  8.20  1.25  0.00  10.3  53.1   -99   -99   8.3   1.0   -99   -99 
   225   -99 0.083 0.223 0.547 0.300  8.70  1.25  0.00   9.6  52.8   -99   -99   8.3   0.2   -99   -99 
!SOIL FROM MIGUEL CALMON, MODIFIED BY KJB, SLIGHTLY LOWER LL, NEW WRL

*IBSB910055  Troup SCS   -99     190 TROUP FINE SAND
@SITE        COUNTRY          LAT     LONG SCS FAMILY
 Jackson CO  USA               -99    -99  TROUP, SCS JACKSON CO, GROSSARENIC PALEUDULT, L,
@ SCOM  SALB  SLU1  SLDR  SLRO  SLNF  SLPF  SMHB  SMPX  SMKE
   -99  0.13   6.2  0.60  76.0  1.00  0.92 SA001 SA001 SA001
@  SLB  SLMH  SLLL  SDUL  SSAT  SRGF  SSKS  SBDM  SLOC  SLCL  SLSI  SLCF  SLNI  SLHW  SLHB  SCEC  SADC
     5   -99 0.033 0.105 0.314 1.000   -99  1.56  0.64   -99   -99   -99   -99   5.8   -99   -99   -99 
    15   -99 0.033 0.105 0.314 1.000   -99  1.56  0.64   -99   -99   -99   -99   5.8   -99   -99   -99 
    30   -99 0.031 0.099 0.313 0.927   -99  1.56  0.19   -99   -99   -99   -99   5.9   -99   -99   -99 
    45   -99 0.031 0.099 0.313 0.229   -99  1.56  0.19   -99   -99   -99   -99   5.9   -99   -99   -99 
    60   -99 0.031 0.099 0.313 0.060   -99  1.56  0.19   -99   -99   -99   -99   5.9   -99   -99   -99 
    90   -99 0.029 0.092 0.315 0.016   -99  1.60  0.05   -99   -99   -99   -99   5.4   -99   -99   -99 
   120   -99 0.029 0.092 0.315 0.011   -99  1.60  0.05   -99   -99   -99   -99   5.4   -99   -99   -99 
   145   -99 0.030 0.096 0.316 0.006   -99  1.60  0.04   -99   -99   -99   -99   5.1   -99   -99   -99 
   167   -99 0.047 0.151 0.357 0.000   -99  1.56  0.10   -99   -99   -99   -99   5.2   -99   -99   -99 
   190   -99 0.047 0.151 0.357 0.000   -99  1.56  0.10   -99   -99   -99   -99   5.2   -99   -99   -99 

*IBPN910015  SCS         -99     180 Millhopper Fine Sand
@SITE        COUNTRY          LAT     LONG SCS FAMILY
 Gainesville USA            29.630 -82.370 Loamy,silic,hyperth Gross. Paleudults
@ SCOM  SALB  SLU1  SLDR  SLRO  SLNF  SLPF  SMHB  SMPX  SMKE
   -99  0.18   5.0  0.50  66.0  1.00  0.92 IB001 IB001 IB001
@  SLB  SLMH  SLLL  SDUL  SSAT  SRGF  SSKS  SBDM  SLOC  SLCL  SLSI  SLCF  SLNI  SLHW  SLHB  SCEC  SADC
     5   -99 0.023 0.086 0.230 1.000  7.40  1.36  0.90   0.9  11.8   -99   -99   -99   -99   -99   -99 
    15   -99 0.023 0.086 0.230 1.000  7.40  1.40  0.69   0.9  11.8   -99   -99   -99   -99   -99   -99 
    30   -99 0.023 0.086 0.230 0.550 15.80  1.46  0.28   4.6   6.4   -99   -99   -99   -99   -99   -99 
    45   -99 0.023 0.086 0.230 0.320 28.00  1.46  0.20   5.8   5.4   -99   -99   -99   -99   -99   -99 
    60   -99 0.023 0.086 0.230 0.320 28.00  1.47  0.20   5.8   5.4   -99   -99   -99   -99   -99   -99 
    90   -99 0.021 0.076 0.230 0.380 27.60  1.43  0.09   9.6   4.2   -99   -99   -99   -99   -99   -99 
   120   -99 0.020 0.076 0.230 0.400 17.50  1.48  0.03   9.6   4.2   -99   -99   -99   -99   -99   -99 
   150   -99 0.027 0.130 0.230 0.300  0.30  1.57  0.03   8.3   3.6   -99   -99   -99   -99   -99   -99 
   180   -99 0.070 0.258 0.360 0.200  0.10  1.79  0.03   8.3   3.6   -99   -99   -99   -99   -99   -99 

*IBPN910016  Gainesville -99     180 Lake Fine Sand
@SITE        COUNTRY          LAT     LONG SCS FAMILY
 -99         -99               -99    -99  Hyperthermic, coated Typic Quartzipsamments
@ SCOM  SALB  SLU1  SLDR  SLRO  SLNF  SLPF  SMHB  SMPX  SMKE
   -99  0.18   5.0  0.50  66.0  1.00  0.92 IB001 IB001 IB001
@  SLB  SLMH  SLLL  SDUL  SSAT  SRGF  SSKS  SBDM  SLOC  SLCL  SLSI  SLCF  SLNI  SLHW  SLHB  SCEC  SADC
     5   -99 0.020 0.089 0.230 1.000   -99  0.00  0.90   -99   -99   -99   -99   -99   -99   -99   -99 
    15   -99 0.020 0.089 0.230 1.000   -99  0.00  0.69   -99   -99   -99   -99   -99   -99   -99   -99 
    30   -99 0.019 0.068 0.230 0.550   -99  0.00  0.28   -99   -99   -99   -99   -99   -99   -99   -99 
    45   -99 0.026 0.075 0.230 0.320   -99  0.00  0.28   -99   -99   -99   -99   -99   -99   -99   -99 
    60   -99 0.026 0.075 0.230 0.320   -99  0.00  0.20   -99   -99   -99   -99   -99   -99   -99   -99 
    90   -99 0.025 0.073 0.230 0.380   -99  0.00  0.09   -99   -99   -99   -99   -99   -99   -99   -99 
   120   -99 0.022 0.069 0.230 0.400   -99  0.00  0.03   -99   -99   -99   -99   -99   -99   -99   -99 