*SOILS: Texas soils

*TXBD000001  IBSNAT      SIC     210 DEFAULT - DEEP SILTY CLAY
@SITE        COUNTRY          LAT     LONG SCS FAMILY
 Generic     Generic           -99    -99  Generic
@ SCOM  SALB  SLU1  SLDR  SLRO  SLNF  SLPF  SMHB  SMPX  SMKE
   -99  0.11   6.0  0.30  82.0  1.00  1.00 IB001 IB001 IB001
@  SLB  SLMH  SLLL  SDUL  SSAT  SRGF  SSKS  SBDM  SLOC  SLCL  SLSI  SLCF  SLNI  SLHW  SLHB  SCEC  SADC
     5   -99 0.150 0.310 0.481 1.000  0.50  1.30  1.75  50.0  45.0   0.0 0.170   6.5   -99   -99   -99 
    15   -99 0.150 0.310 0.481 1.000  0.20  1.30  1.75  50.0  45.0   0.0 0.170   6.5   -99   -99   -99 
    30   -99 0.140 0.300 0.482 0.700  0.20  1.30  1.60  50.0  45.0   0.0 0.170   6.5   -99   -99   -99 
    45   -99 0.180 0.320 0.465 0.400  0.20  1.35  1.45  50.0  45.0   0.0 0.140   6.5   -99   -99   -99 
    60   -99 0.200 0.340 0.465 0.300  0.20  1.35  1.45  50.0  45.0   0.0 0.140   6.5   -99   -99   -99 
    90   -99 0.230 0.360 0.468 0.300  0.20  1.35  1.10  50.0  45.0   0.0 0.110   6.5   -99   -99   -99 
   120   -99 0.245 0.370 0.452 0.280  0.20  1.40  0.65  50.0  45.0   0.0 0.060   6.5   -99   -99   -99 
   150   -99 0.260 0.380 0.455 0.260  0.20  1.40  0.30  50.0  45.0   0.0 0.030   6.5   -99   -99   -99 
   180   -99 0.260 0.380 0.457 0.220  0.20  1.40  0.10  50.0  45.0   0.0 0.010   6.5   -99   -99   -99 
   210   -99 0.260 0.380 0.457 0.220  0.20  1.40  0.01  50.0  45.0   0.0 0.000   6.5   -99   -99   -99 

*TXBD000002  IBSNAT      SIC     210 DEFAULT - DEEP SILTY CLAY
@SITE        COUNTRY          LAT     LONG SCS FAMILY
 Generic     Generic           -99    -99  Generic
@ SCOM  SALB  SLU1  SLDR  SLRO  SLNF  SLPF  SMHB  SMPX  SMKE
   -99  0.11   6.0  0.30  82.0  1.00  1.00 IB001 IB001 IB001
@  SLB  SLMH  SLLL  SDUL  SSAT  SRGF  SSKS  SBDM  SLOC  SLCL  SLSI  SLCF  SLNI  SLHW  SLHB  SCEC  SADC
     5   -99 0.150 0.290 0.481 0.700  0.50  1.30  1.75  50.0  45.0   0.0 0.170   6.5   -99   -99   -99 
    15   -99 0.150 0.290 0.481 0.400  0.20  1.30  1.75  50.0  45.0   0.0 0.170   6.5   -99   -99   -99 
    30   -99 0.160 0.290 0.482 0.300  0.20  1.30  1.60  50.0  45.0   0.0 0.170   6.5   -99   -99   -99 
    45   -99 0.180 0.310 0.465 0.300  0.20  1.35  1.45  50.0  45.0   0.0 0.140   6.5   -99   -99   -99 
    60   -99 0.200 0.330 0.465 0.300  0.20  1.35  1.45  50.0  45.0   0.0 0.140   6.5   -99   -99   -99 
    90   -99 0.210 0.330 0.468 0.200  0.20  1.35  1.10  50.0  45.0   0.0 0.110   6.5   -99   -99   -99 
   120   -99 0.220 0.360 0.452 0.200  0.20  1.40  0.65  50.0  45.0   0.0 0.060   6.5   -99   -99   -99 
   150   -99 0.260 0.370 0.455 0.200  0.20  1.40  0.30  50.0  45.0   0.0 0.030   6.5   -99   -99   -99 
   180   -99 0.260 0.370 0.457 0.100  0.20  1.40  0.10  50.0  45.0   0.0 0.010   6.5   -99   -99   -99 
   210   -99 0.260 0.380 0.457 0.100  0.01  1.40  0.01  50.0  45.0   0.0 0.000   6.5   -99   -99   -99 

!Soil DUL and LL modified by visually matching soil water measurements, K. J. Boote
*TXBD000005  IBSNAT      SIC     210 DEFAULT - DEEP SILTY CLAY
@SITE        COUNTRY          LAT     LONG SCS FAMILY
 Generic     Generic           -99    -99  Generic
@ SCOM  SALB  SLU1  SLDR  SLRO  SLNF  SLPF  SMHB  SMPX  SMKE
   -99  0.11   6.0  0.30  82.0  1.00  1.00 IB001 IB001 IB001
@  SLB  SLMH  SLLL  SDUL  SSAT  SRGF  SSKS  SBDM  SLOC  SLCL  SLSI  SLCF  SLNI  SLHW  SLHB  SCEC  SADC
     5   -99 0.150 0.300 0.481 1.000  0.50  1.30  1.75  50.0  45.0   0.0 0.170   6.5   -99   -99   -99 
    15   -99 0.150 0.300 0.481 1.000  0.20  1.30  1.75  50.0  45.0   0.0 0.170   6.5   -99   -99   -99 
    30   -99 0.150 0.300 0.482 0.700  0.20  1.30  1.60  50.0  45.0   0.0 0.170   6.5   -99   -99   -99 
    45   -99 0.180 0.330 0.465 0.400  0.20  1.35  1.45  50.0  45.0   0.0 0.140   6.5   -99   -99   -99 
    60   -99 0.190 0.340 0.465 0.300  0.20  1.35  1.45  50.0  45.0   0.0 0.140   6.5   -99   -99   -99 
    90   -99 0.210 0.360 0.468 0.220  0.20  1.35  1.10  50.0  45.0   0.0 0.110   6.5   -99   -99   -99 
   120   -99 0.230 0.370 0.452 0.240  0.20  1.40  0.65  50.0  45.0   0.0 0.060   6.5   -99   -99   -99 
   150   -99 0.245 0.380 0.455 0.180  0.20  1.40  0.30  50.0  45.0   0.0 0.030   6.5   -99   -99   -99 
   180   -99 0.245 0.380 0.457 0.160  0.20  1.40  0.10  50.0  45.0   0.0 0.010   6.5   -99   -99   -99 
   210   -99 0.245 0.380 0.457 0.120  0.20  1.40  0.01  50.0  45.0   0.0 0.000   6.5   -99   -99   -99 