*SOILS: Soils found in forage repository, but not actually used in any corresponding experiments
! DSSAT v4.6; chp 2017-03-30

!SSAT (438->468) + SSKS(0.06->0.10) + SDUL (366->396)
*SPPI050001  Pedreira, B   CL    200 PedreiraBC
@SITE        COUNTRY          LAT     LONG SCS FAMILY
 Piracicaba  Brazil        -22.720 -47.420 -99
@ SCOM  SALB  SLU1  SLDR  SLRO  SLNF  SLPF  SMHB  SMPX  SMKE
     R  0.14   6.0  0.40  84.0  1.00  1.00 IB001 IB001 IB001
@  SLB  SLMH  SLLL  SDUL  SSAT  SRGF  SSKS  SBDM  SLOC  SLCL  SLSI  SLCF  SLNI  SLHW  SLHB  SCEC  SADC
    20   -99 0.328 0.519 0.533 1.000  0.23  1.10  3.77  39.9  21.8   -99   -99   6.0   -99   -99    
    40   -99 0.242 0.366 0.468 0.549  0.10  1.42   -99  43.7  21.7   -99   -99   -99   -99   -99    
    70   -99 0.242 0.366 0.468 0.333  0.10  1.42   -99  43.7  21.7   -99   -99   -99   -99   -99    
    90   -99 0.242 0.366 0.468 0.202  0.10  1.42   -99  43.7  21.7   -99   -99   -99   -99   -99   
   110   -99 0.242 0.366 0.468 0.135  0.10  1.42   -99  43.7  21.7   -99   -99   -99   -99   -99   
   130   -99 0.242 0.366 0.468 0.091  0.10  1.42   -99  43.7  21.7   -99   -99   -99   -99   -99   
   160   -99 0.242 0.366 0.468 0.055  0.10  1.42   -99  43.7  21.7   -99   -99   -99   -99   -99    
   180   -99 0.242 0.366 0.468 0.033  0.10  1.42   -99  43.7  21.7   -99   -99   -99   -99   -99    
   200   -99 0.242 0.366 0.468 0.022  0.10  1.42   -99  43.7  21.7   -99   -99   -99   -99   -99    

*UFPE070001  -99         LS      180 Orangeburg Pedon No.:2
@SITE        COUNTRY          LAT     LONG SCS FAMILY
 Peach       USA               -99    -99  Typic Paleudults; fine-loamy siliceous, thermic
@ SCOM  SALB  SLU1  SLDR  SLRO  SLNF  SLPF  SMHB  SMPX  SMKE
    BN  0.13   6.0  0.60   0.0  1.00  1.00 IB001 IB001 IB001
@  SLB  SLMH  SLLL  SDUL  SSAT  SRGF  SSKS  SBDM  SLOC  SLCL  SLSI  SLCF  SLNI  SLHW  SLHB  SCEC  SADC
    18    Ap 0.087 0.179 0.327 1.000  6.11  1.71  1.02   6.7  15.8   -99   -99   5.2   -99   -99   -99 
    28    AB 0.097 0.170 0.346 0.631  2.59  1.68  0.22  13.1  13.8   -99   -99   5.0   -99   -99   -99 
    38    BA 0.128 0.201 0.332 0.517  2.59  1.72  0.18  19.5  12.4   -99   -99   5.1   -99   -99   -99 
    74   Bt1 0.187 0.261 0.325 0.326  0.43  1.74  0.10  31.6  10.4   -99   -99   5.5   -99   -99   -99 
   122   Bt2 0.205 0.276 0.333 0.141  0.12  1.72  0.08  35.4   8.0   -99   -99   5.8   -99   -99   -99 
   150   Bt3 0.222 0.289 0.326 0.066  0.12  1.74  0.04  38.9   5.6   -99   -99   5.9   -99   -99   -99 
   180   Bt4 0.225 0.292 0.336 0.037  0.12  1.71  0.06  39.4   5.2   -99   -99   5.0   -99   -99   -99 

*UFHO070001  -99         LS      185 Orangeburg (taxadjunct)Pedon No.: 3
@SITE        COUNTRY          LAT     LONG SCS FAMILY
 Houston cny USA               -99    -99  Typic Paleudults; fine-loamy siliceous, thermic
@ SCOM  SALB  SLU1  SLDR  SLRO  SLNF  SLPF  SMHB  SMPX  SMKE
    BN  0.13   6.0  0.60   0.0  1.00  1.00 IB001 IB001 IB001
@  SLB  SLMH  SLLL  SDUL  SSAT  SRGF  SSKS  SBDM  SLOC  SLCL  SLSI  SLCF  SLNI  SLHW  SLHB  SCEC  SADC
    20    Ap 0.057 0.121 0.358 1.000  6.11  1.64  0.40   4.1  10.0   -99   -99   5.9   -99   -99   -99 
    30    AB 0.098 0.167 0.328 0.607  2.59  1.73  0.20  13.4  12.2   -99   -99   5.3   -99   -99   -99 
    43   Bt1 0.187 0.258 0.347 0.482  0.43  1.68  0.10  31.7   8.8   -99   -99   5.3   -99   -99   -99 
    71   Bt2 0.164 0.235 0.340 0.320  0.43  1.70  0.08  27.2  10.5   -99   -99   5.6   -99   -99   -99 
    97   Bt3 0.187 0.257 0.318 0.186  0.43  1.76  0.08  31.7   8.8   -99   -99   5.7   -99   -99   -99 
   124   Bt4 0.219 0.288 0.304 0.110  0.12  1.80  0.04  38.4   6.7   -99   -99   5.1   -99   -99   -99 
   155   Bt5 0.237 0.305 0.319 0.061  0.12  1.76  0.04  41.9   5.5   -99   -99   4.8   -99   -99   -99 
   180   Bt6 0.238 0.305 0.322 0.035  0.12  1.75  0.02  42.3   4.6   -99   -99   4.9   -99   -99   -99 
   185    BC 0.252 0.316 0.373 0.026  0.12  1.61  0.02  45.0   2.7   -99   -99   5.0   -99   -99   -99 

!*UFGA080001  Survey      S       206 Chipley Sand
!@SITE        COUNTRY          LAT     LONG SCS FAMILY
! Gainesville USA               -99    -99  -99
!@ SCOM  SALB  SLU1  SLDR  SLRO  SLNF  SLPF  SMHB  SMPX  SMKE
!     G  0.13   6.0  0.60  61.0  1.00  1.00 IB001 IB001 IB001
!@  SLB  SLMH  SLLL  SDUL  SSAT  SRGF  SSKS  SBDM  SLOC  SLCL  SLSI  SLCF  SLNI  SLHW  SLHB  SCEC  SADC
!    15   Ap1 0.094 0.189 0.347 1.000  7.20  1.63  2.12   2.0   5.4   -99   -99   5.2   -99   1.4   -99 
!    30   Ap2 0.063 0.122 0.407 0.638 11.80  1.50  0.64   3.9   4.8   -99   -99   5.5   -99   0.5   -99 
!    64    C1 0.054 0.103 0.392 0.391 19.40  1.55  0.28   4.0   4.3   -99   -99   5.4   -99   0.1   -99 
!   124    C2 0.047 0.092 0.390 0.153 26.30  1.56  0.09   3.8   4.0   -99   -99   5.0   -99   0.0   -99 
!   206    C3 0.036 0.078 0.362 0.037 23.00  1.64  0.04   1.8   4.2   -99   -99   5.5   -99   0.0   -99 

*UFGA080001  Survey      S       206 Chipley Sand
@SITE        COUNTRY          LAT     LONG SCS FAMILY
 Gainesville USA            27.420 -81.920   -99
@ SCOM  SALB  SLU1  SLDR  SLRO  SLNF  SLPF  SMHB  SMPX  SMKE
    BL  0.09   5.9  0.60  30.0  1.00  0.92 IB001 IB001 IB001
@  SLB  SLMH  SLLL  SDUL  SSAT  SRGF  SSKS  SBDM  SLOC  SLCL  SLSI  SLCF  SLNI  SLHW  SLHB  SCEC  SADC
     8    A1 0.027 0.110 0.471 1.000 21.00  1.32  1.02   0.6   5.5   0.0   -99   5.2   -99   8.1   -99 
    25   A21 0.021 0.089 0.389 1.000 10.90  1.56  0.27   0.5   3.4   0.0   -99   4.9   -99   0.3   -99 
    68   A22 0.023 0.091 0.347 1.000 13.80  1.68  0.11   0.4   2.3   0.0   -99   4.9   -99   0.0   -99 
    89   B2H 0.020 0.087 0.307 0.800  3.20  1.78  0.62   1.6   5.4   0.0   -99   4.5   -99   5.3   -99 
   117    B3 0.025 0.097 0.313 0.800  4.70  1.77  0.35   1.1   2.9   0.0   -99   4.7   -99   2.3   -99 
   145   A'2 0.025 0.097 0.320 0.600  2.20  1.75  0.28   2.6   2.9   0.0   -99   5.0   -99   2.5   -99 
   203  B'TG 0.175 0.261 0.336 0.600  2.20  1.75  0.13  16.6   3.3   0.0   -99   5.0   -99  11.0   -99 

