*SOILS: University of Puerto Rico

*UP00630001  SCS         C       234 COTO:RITCHIE
@SITE        COUNTRY          LAT     LONG SCS FAMILY
 ISABELA     PUERTO RIC     18.470 -67.060 INCEPTIC HAPLUDOX: CLAYEY, KAOLINITIC, ISOHYPERTHE
@ SCOM  SALB  SLU1  SLDR  SLRO  SLNF  SLPF  SMHB  SMPX  SMKE
    BN  0.13   7.3  0.60  87.0  1.00  1.00 IB001 IB001 IB001
@  SLB  SLMH  SLLL  SDUL  SSAT  SRGF  SSKS  SBDM  SLOC  SLCL  SLSI  SLCF  SLNI  SLHW  SLHB  SCEC  SADC
    23    AP 0.307 0.419 0.434 1.000   -99  1.38  2.75  61.1   7.9   0.0 0.270   5.5   -99  11.6   -99 
    36    B2 0.332 0.443 0.458 0.500   -99  1.41  1.37  66.6   6.0   0.0 0.140   4.9   -99   7.5   -99 
    48    B2 0.349 0.459 0.474 0.200   -99  1.38  0.84  70.4   5.3   0.0 0.130   4.8   -99   5.8   -99 
    66    B2 0.358 0.469 0.484 0.200   -99  1.21  0.57  72.5   5.0   0.0 0.120   5.0   -99   5.6   -99 
    94    B2 0.366 0.476 0.491 0.200   -99  1.19  0.41  74.2   5.8   0.0 0.110   5.3   -99   5.5   -99 
   124    B2 0.347 0.459 0.474 0.110   -99  1.53  0.22  69.9   9.3   0.0   -99   5.3   -99   4.6   -99 
   178    B2 0.293 0.407 0.422 0.050   -99  1.54  0.17  57.8  13.1   0.0   -99   5.0   -99   4.0   -99 
   234    B2 0.285 0.402 0.417 0.010   -99  1.54  0.18  56.1  18.1   0.0   -99   4.7   -99   4.8   -99 

*UPIS630002  SCS         C       234 COTO:LABORATORY
@SITE        COUNTRY          LAT     LONG SCS FAMILY
 ISABELA     PUERTO RIC     18.470  67.050 CLAYEY, KAOLINITIC, ISOHYPERTHERMIC INCEPTIC HAPLU
@ SCOM  SALB  SLU1  SLDR  SLRO  SLNF  SLPF  SMHB  SMPX  SMKE
    BN  0.13   7.3  0.60  76.0  1.00  1.00 IB001 IB001 IB001
@  SLB  SLMH  SLLL  SDUL  SSAT  SRGF  SSKS  SBDM  SLOC  SLCL  SLSI  SLCF  SLNI  SLHW  SLHB  SCEC  SADC
    23    AP 0.200 0.280 0.434 1.000   -99  1.35  2.75  61.1   7.9   0.0 0.270   5.5   4.8  11.6   -99 
    36    B2 0.216 0.260 0.458 0.500   -99  1.40  1.37  66.6   6.0   0.0 0.140   4.9   4.2   7.5   -99 
    48    B2 0.230 0.267 0.474 0.200   -99  1.36  0.84  70.4   5.3   0.0 0.130   4.8   4.3   5.8   -99 
    66    B2 0.247 0.310 0.484 0.200   -99  1.19  0.57  72.5   5.0   0.0 0.120   5.0   4.6   5.6   -99 
    94    B2 0.252 0.329 0.491 0.200   -99  1.17  0.41  74.2   5.8   0.0 0.110   5.3   5.1   5.5   -99 
   124    B2 0.226 0.244 0.474 0.000   -99  1.54  0.22  69.9   9.3   0.0   -99   5.3   5.5   4.6   -99 
   178    B2 0.205 0.233 0.422 0.000   -99  1.55  0.17  57.8  13.1   0.0   -99   5.0   5.2   4.0   -99 
   234    B2 0.247 0.310 0.417 0.000   -99  1.55  0.18  56.1  18.1   0.0   -99   4.7   4.6   4.8   -99 

*UPIS630003  SCS         C       234 COTO:LABORATORY, 1/3 BAR
@SITE        COUNTRY          LAT     LONG SCS FAMILY
 ISABELA     PUERTO RIC     18.470  67.050 CLAYEY, KAOLINITIC, ISOHYPERTHERMIC INCEPTIC HAPLU
@ SCOM  SALB  SLU1  SLDR  SLRO  SLNF  SLPF  SMHB  SMPX  SMKE
    BN  0.13   7.3  0.60  76.0  1.00  1.00 IB001 IB001 IB001
@  SLB  SLMH  SLLL  SDUL  SSAT  SRGF  SSKS  SBDM  SLOC  SLCL  SLSI  SLCF  SLNI  SLHW  SLHB  SCEC  SADC
    23    AP 0.200 0.269 0.434 1.000   -99  1.35  2.75  61.1   7.9   0.0 0.270   5.5   4.8  11.6   -99 
    36    B2 0.216 0.267 0.458 0.500   -99  1.40  1.37  66.6   6.0   0.0 0.140   4.9   4.2   7.5   -99 
    48    B2 0.230 0.275 0.474 0.200   -99  1.36  0.84  70.4   5.3   0.0 0.130   4.8   4.3   5.8   -99 
    66    B2 0.247 0.352 0.484 0.200   -99  1.19  0.57  72.5   5.0   0.0 0.120   5.0   4.6   5.6   -99 
    94    B2 0.252 0.327 0.491 0.200   -99  1.17  0.41  74.2   5.8   0.0 0.110   5.3   5.1   5.5   -99 
   124    B2 0.226 0.253 0.474 0.000   -99  1.54  0.22  69.9   9.3   0.0   -99   5.3   5.5   4.6   -99 
   178    B2 0.205 0.252 0.422 0.000   -99  1.55  0.17  57.8  13.1   0.0   -99   5.0   5.2   4.0   -99 
   234    B2 0.247 0.310 0.417 0.000   -99  1.55  0.18  56.1  18.1   0.0   -99   4.7   4.6   4.8   -99 

*UPIS630004  SCS         C       234 COTO:LABORATORY, DEEPER ROOTS
@SITE        COUNTRY          LAT     LONG SCS FAMILY
 ISABELA     PUERTO RICO    18.470  67.050 CLAYEY, KAOLINITIC, ISOHYPERTHERMIC INCEPTIC HAPLU
@ SCOM  SALB  SLU1  SLDR  SLRO  SLNF  SLPF  SMHB  SMPX  SMKE
    BN  0.13   7.3  0.60  76.0  1.00  1.00 IB001 IB001 IB001
@  SLB  SLMH  SLLL  SDUL  SSAT  SRGF  SSKS  SBDM  SLOC  SLCL  SLSI  SLCF  SLNI  SLHW  SLHB  SCEC  SADC
    23    AP 0.200 0.280 0.434 1.000   -99  1.35  2.75  61.1   7.9   0.0 0.270   5.5   4.8  11.6   -99 
    36    B2 0.216 0.260 0.458 0.900   -99  1.40  1.37  66.6   6.0   0.0 0.140   4.9   4.2   7.5   -99 
    48    B2 0.230 0.267 0.474 0.700   -99  1.36  0.84  70.4   5.3   0.0 0.130   4.8   4.3   5.8   -99 
    66    B2 0.247 0.310 0.484 0.500   -99  1.19  0.57  72.5   5.0   0.0 0.120   5.0   4.6   5.6   -99 
    94    B2 0.252 0.329 0.491 0.200   -99  1.17  0.41  74.2   5.8   0.0 0.110   5.3   5.1   5.5   -99 
   124    B2 0.226 0.244 0.474 0.050   -99  1.54  0.22  69.9   9.3   0.0   -99   5.3   5.5   4.6   -99 
   178    B2 0.205 0.233 0.422 0.000   -99  1.55  0.17  57.8  13.1   0.0   -99   5.0   5.2   4.0   -99 
   234    B2 0.247 0.310 0.417 0.000   -99  1.55  0.18  56.1  18.1   0.0   -99   4.7   4.6   4.8   -99 
