*EXP.DETAILS: Phosphorus x temperature Sensitivity Analysis Auto Irr

*GENERAL
@PEOPLE
 Jeff White                           

@NOTES
Prepared for testing pre-release versions of CSM.  Created to 
characterize the Phosphorus x temperature response of crops using ficticious 
weather data and soil conditions for a site at 0o latitude 
(to avoid confounding effcts of photoperiod).

*TREATMENTS                        -------------FACTOR LEVELS------------
@N R O C TNAME.................... CU FL SA IC MP MI MF MR MC MT ME MH SM
0011 0 0 P =   0, Tmean =  3        1  1  1  1  1 00 01  0  0  0  1  0  1
0021 0 0 P = 020, Tmean =  3        1  1  1  1  1 00 02  0  0  0  1  0  1
0031 0 0 P = 040, Tmean =  3        1  1  1  1  1 00 03  0  0  0  1  0  1
0041 0 0 P = 060, Tmean =  3        1  1  1  1  1 00 04  0  0  0  1  0  1
0051 0 0 P = 080, Tmean =  3        1  1  1  1  1 00 05  0  0  0  1  0  1
0061 0 0 P = 100, Tmean =  3        1  1  1  1  1 00 06  0  0  0  1  0  1
0071 0 0 P = 120, Tmean =  3        1  1  1  1  1 00 07  0  0  0  1  0  1
0081 0 0 P = 140, Tmean =  3        1  1  1  1  1 00 08  0  0  0  1  0  1
0091 0 0 P = 160, Tmean =  3        1  1  1  1  1 00 09  0  0  0  1  0  1
0101 0 0 P = 180, Tmean =  3        1  1  1  1  1 00 10  0  0  0  1  0  1
0111 0 0 P = 200, Tmean =  3        1  1  1  1  1 00 11  0  0  0  1  0  1
0121 0 0 P = 220, Tmean =  3        1  1  1  1  1 00 12  0  0  0  1  0  1
0131 0 0 P = 260, Tmean =  3        1  1  1  1  1 00 13  0  0  0  1  0  1
0141 0 0 P = 300, Tmean =  3        1  1  1  1  1 00 14  0  0  0  1  0  1
0151 0 0 P = 400, Tmean =  3        1  1  1  1  1 00 15  0  0  0  1  0  1
0161 0 0 P = 500, Tmean =  3        1  1  1  1  1 00 16  0  0  0  1  0  1
0171 0 0 P =   0, Tmean =  5        1  1  1  1  1 00 01  0  0  0  2  0  1
0181 0 0 P = 020, Tmean =  5        1  1  1  1  1 00 02  0  0  0  2  0  1
0191 0 0 P = 040, Tmean =  5        1  1  1  1  1 00 03  0  0  0  2  0  1
0201 0 0 P = 060, Tmean =  5        1  1  1  1  1 00 04  0  0  0  2  0  1
0211 0 0 P = 080, Tmean =  5        1  1  1  1  1 00 05  0  0  0  2  0  1
0221 0 0 P = 100, Tmean =  5        1  1  1  1  1 00 06  0  0  0  2  0  1
0231 0 0 P = 120, Tmean =  5        1  1  1  1  1 00 07  0  0  0  2  0  1
0241 0 0 P = 140, Tmean =  5        1  1  1  1  1 00 08  0  0  0  2  0  1
0251 0 0 P = 160, Tmean =  5        1  1  1  1  1 00 09  0  0  0  2  0  1
0261 0 0 P = 180, Tmean =  5        1  1  1  1  1 00 10  0  0  0  2  0  1
0271 0 0 P = 200, Tmean =  5        1  1  1  1  1 00 11  0  0  0  2  0  1
0281 0 0 P = 220, Tmean =  5        1  1  1  1  1 00 12  0  0  0  2  0  1
0291 0 0 P = 260, Tmean =  5        1  1  1  1  1 00 13  0  0  0  2  0  1
0301 0 0 P = 300, Tmean =  5        1  1  1  1  1 00 14  0  0  0  2  0  1
0311 0 0 P = 400, Tmean =  5        1  1  1  1  1 00 15  0  0  0  2  0  1
0321 0 0 P = 500, Tmean =  5        1  1  1  1  1 00 16  0  0  0  2  0  1
0331 0 0 P =   0, Tmean =  7        1  1  1  1  1 00 01  0  0  0  3  0  1
0341 0 0 P = 020, Tmean =  7        1  1  1  1  1 00 02  0  0  0  3  0  1
0351 0 0 P = 040, Tmean =  7        1  1  1  1  1 00 03  0  0  0  3  0  1
0361 0 0 P = 060, Tmean =  7        1  1  1  1  1 00 04  0  0  0  3  0  1
0371 0 0 P = 080, Tmean =  7        1  1  1  1  1 00 05  0  0  0  3  0  1
0381 0 0 P = 100, Tmean =  7        1  1  1  1  1 00 06  0  0  0  3  0  1
0391 0 0 P = 120, Tmean =  7        1  1  1  1  1 00 07  0  0  0  3  0  1
0401 0 0 P = 140, Tmean =  7        1  1  1  1  1 00 08  0  0  0  3  0  1
0411 0 0 P = 160, Tmean =  7        1  1  1  1  1 00 09  0  0  0  3  0  1
0421 0 0 P = 180, Tmean =  7        1  1  1  1  1 00 10  0  0  0  3  0  1
0431 0 0 P = 200, Tmean =  7        1  1  1  1  1 00 11  0  0  0  3  0  1
0441 0 0 P = 220, Tmean =  7        1  1  1  1  1 00 12  0  0  0  3  0  1
0451 0 0 P = 260, Tmean =  7        1  1  1  1  1 00 13  0  0  0  3  0  1
0461 0 0 P = 300, Tmean =  7        1  1  1  1  1 00 14  0  0  0  3  0  1
0471 0 0 P = 400, Tmean =  7        1  1  1  1  1 00 15  0  0  0  3  0  1
0481 0 0 P = 500, Tmean =  7        1  1  1  1  1 00 16  0  0  0  3  0  1
0491 0 0 P =   0, Tmean =  9        1  1  1  1  1 00 01  0  0  0  4  0  1
0501 0 0 P = 020, Tmean =  9        1  1  1  1  1 00 02  0  0  0  4  0  1
0511 0 0 P = 040, Tmean =  9        1  1  1  1  1 00 03  0  0  0  4  0  1
0521 0 0 P = 060, Tmean =  9        1  1  1  1  1 00 04  0  0  0  4  0  1
0531 0 0 P = 080, Tmean =  9        1  1  1  1  1 00 05  0  0  0  4  0  1
0541 0 0 P = 100, Tmean =  9        1  1  1  1  1 00 06  0  0  0  4  0  1
0551 0 0 P = 120, Tmean =  9        1  1  1  1  1 00 07  0  0  0  4  0  1
0561 0 0 P = 140, Tmean =  9        1  1  1  1  1 00 08  0  0  0  4  0  1
0571 0 0 P = 160, Tmean =  9        1  1  1  1  1 00 09  0  0  0  4  0  1
0581 0 0 P = 180, Tmean =  9        1  1  1  1  1 00 10  0  0  0  4  0  1
0591 0 0 P = 200, Tmean =  9        1  1  1  1  1 00 11  0  0  0  4  0  1
0601 0 0 P = 220, Tmean =  9        1  1  1  1  1 00 12  0  0  0  4  0  1
0611 0 0 P = 260, Tmean =  9        1  1  1  1  1 00 13  0  0  0  4  0  1
0621 0 0 P = 300, Tmean =  9        1  1  1  1  1 00 14  0  0  0  4  0  1
0631 0 0 P = 400, Tmean =  9        1  1  1  1  1 00 15  0  0  0  4  0  1
0641 0 0 P = 500, Tmean =  9        1  1  1  1  1 00 16  0  0  0  4  0  1
0651 0 0 P =   0, Tmean = 11        1  1  1  1  1 00 01  0  0  0  5  0  1
0661 0 0 P = 020, Tmean = 11        1  1  1  1  1 00 02  0  0  0  5  0  1
0671 0 0 P = 040, Tmean = 11        1  1  1  1  1 00 03  0  0  0  5  0  1
0681 0 0 P = 060, Tmean = 11        1  1  1  1  1 00 04  0  0  0  5  0  1
0691 0 0 P = 080, Tmean = 11        1  1  1  1  1 00 05  0  0  0  5  0  1
0701 0 0 P = 100, Tmean = 11        1  1  1  1  1 00 06  0  0  0  5  0  1
0711 0 0 P = 120, Tmean = 11        1  1  1  1  1 00 07  0  0  0  5  0  1
0721 0 0 P = 140, Tmean = 11        1  1  1  1  1 00 08  0  0  0  5  0  1
0731 0 0 P = 160, Tmean = 11        1  1  1  1  1 00 09  0  0  0  5  0  1
0741 0 0 P = 180, Tmean = 11        1  1  1  1  1 00 10  0  0  0  5  0  1
0751 0 0 P = 200, Tmean = 11        1  1  1  1  1 00 11  0  0  0  5  0  1
0761 0 0 P = 220, Tmean = 11        1  1  1  1  1 00 12  0  0  0  5  0  1
0771 0 0 P = 260, Tmean = 11        1  1  1  1  1 00 13  0  0  0  5  0  1
0781 0 0 P = 300, Tmean = 11        1  1  1  1  1 00 14  0  0  0  5  0  1
0791 0 0 P = 400, Tmean = 11        1  1  1  1  1 00 15  0  0  0  5  0  1
0801 0 0 P = 500, Tmean = 11        1  1  1  1  1 00 16  0  0  0  5  0  1
0811 0 0 P =   0, Tmean = 13        1  1  1  1  1 00 01  0  0  0  6  0  1
0821 0 0 P = 020, Tmean = 13        1  1  1  1  1 00 02  0  0  0  6  0  1
0831 0 0 P = 040, Tmean = 13        1  1  1  1  1 00 03  0  0  0  6  0  1
0841 0 0 P = 060, Tmean = 13        1  1  1  1  1 00 04  0  0  0  6  0  1
0851 0 0 P = 080, Tmean = 13        1  1  1  1  1 00 05  0  0  0  6  0  1
0861 0 0 P = 100, Tmean = 13        1  1  1  1  1 00 06  0  0  0  6  0  1
0871 0 0 P = 120, Tmean = 13        1  1  1  1  1 00 07  0  0  0  6  0  1
0881 0 0 P = 140, Tmean = 13        1  1  1  1  1 00 08  0  0  0  6  0  1
0891 0 0 P = 160, Tmean = 13        1  1  1  1  1 00 09  0  0  0  6  0  1
0901 0 0 P = 180, Tmean = 13        1  1  1  1  1 00 10  0  0  0  6  0  1
0911 0 0 P = 200, Tmean = 13        1  1  1  1  1 00 11  0  0  0  6  0  1
0921 0 0 P = 220, Tmean = 13        1  1  1  1  1 00 12  0  0  0  6  0  1
0931 0 0 P = 260, Tmean = 13        1  1  1  1  1 00 13  0  0  0  6  0  1
0941 0 0 P = 300, Tmean = 13        1  1  1  1  1 00 14  0  0  0  6  0  1
0951 0 0 P = 400, Tmean = 13        1  1  1  1  1 00 15  0  0  0  6  0  1
0961 0 0 P = 500, Tmean = 13        1  1  1  1  1 00 16  0  0  0  6  0  1
0971 0 0 P =   0, Tmean = 15        1  1  1  1  1 00 01  0  0  0  7  0  1
0981 0 0 P = 020, Tmean = 15        1  1  1  1  1 00 02  0  0  0  7  0  1
0991 0 0 P = 040, Tmean = 15        1  1  1  1  1 00 03  0  0  0  7  0  1
1001 0 0 P = 060, Tmean = 15        1  1  1  1  1 00 04  0  0  0  7  0  1
1011 0 0 P = 080, Tmean = 15        1  1  1  1  1 00 05  0  0  0  7  0  1
1021 0 0 P = 100, Tmean = 15        1  1  1  1  1 00 06  0  0  0  7  0  1
1031 0 0 P = 120, Tmean = 15        1  1  1  1  1 00 07  0  0  0  7  0  1
1041 0 0 P = 140, Tmean = 15        1  1  1  1  1 00 08  0  0  0  7  0  1
1051 0 0 P = 160, Tmean = 15        1  1  1  1  1 00 09  0  0  0  7  0  1
1061 0 0 P = 180, Tmean = 15        1  1  1  1  1 00 10  0  0  0  7  0  1
1071 0 0 P = 200, Tmean = 15        1  1  1  1  1 00 11  0  0  0  7  0  1
1081 0 0 P = 220, Tmean = 15        1  1  1  1  1 00 12  0  0  0  7  0  1
1091 0 0 P = 260, Tmean = 15        1  1  1  1  1 00 13  0  0  0  7  0  1
1101 0 0 P = 300, Tmean = 15        1  1  1  1  1 00 14  0  0  0  7  0  1
1111 0 0 P = 400, Tmean = 15        1  1  1  1  1 00 15  0  0  0  7  0  1
1121 0 0 P = 500, Tmean = 15        1  1  1  1  1 00 16  0  0  0  7  0  1
1131 0 0 P =   0, Tmean = 17        1  1  1  1  1 00 01  0  0  0  8  0  1
1141 0 0 P = 020, Tmean = 17        1  1  1  1  1 00 02  0  0  0  8  0  1
1151 0 0 P = 040, Tmean = 17        1  1  1  1  1 00 03  0  0  0  8  0  1
1161 0 0 P = 060, Tmean = 17        1  1  1  1  1 00 04  0  0  0  8  0  1
1171 0 0 P = 080, Tmean = 17        1  1  1  1  1 00 05  0  0  0  8  0  1
1181 0 0 P = 100, Tmean = 17        1  1  1  1  1 00 06  0  0  0  8  0  1
1191 0 0 P = 120, Tmean = 17        1  1  1  1  1 00 07  0  0  0  8  0  1
1201 0 0 P = 140, Tmean = 17        1  1  1  1  1 00 08  0  0  0  8  0  1
1211 0 0 P = 160, Tmean = 17        1  1  1  1  1 00 09  0  0  0  8  0  1
1221 0 0 P = 180, Tmean = 17        1  1  1  1  1 00 10  0  0  0  8  0  1
1231 0 0 P = 200, Tmean = 17        1  1  1  1  1 00 11  0  0  0  8  0  1
1241 0 0 P = 220, Tmean = 17        1  1  1  1  1 00 12  0  0  0  8  0  1
1251 0 0 P = 260, Tmean = 17        1  1  1  1  1 00 13  0  0  0  8  0  1
1261 0 0 P = 300, Tmean = 17        1  1  1  1  1 00 14  0  0  0  8  0  1
1271 0 0 P = 400, Tmean = 17        1  1  1  1  1 00 15  0  0  0  8  0  1
1281 0 0 P = 500, Tmean = 17        1  1  1  1  1 00 16  0  0  0  8  0  1
1291 0 0 P =   0, Tmean = 19        1  1  1  1  1 00 01  0  0  0  9  0  1
1301 0 0 P = 020, Tmean = 19        1  1  1  1  1 00 02  0  0  0  9  0  1
1311 0 0 P = 040, Tmean = 19        1  1  1  1  1 00 03  0  0  0  9  0  1
1321 0 0 P = 060, Tmean = 19        1  1  1  1  1 00 04  0  0  0  9  0  1
1331 0 0 P = 080, Tmean = 19        1  1  1  1  1 00 05  0  0  0  9  0  1
1341 0 0 P = 100, Tmean = 19        1  1  1  1  1 00 06  0  0  0  9  0  1
1351 0 0 P = 120, Tmean = 19        1  1  1  1  1 00 07  0  0  0  9  0  1
1361 0 0 P = 140, Tmean = 19        1  1  1  1  1 00 08  0  0  0  9  0  1
1371 0 0 P = 160, Tmean = 19        1  1  1  1  1 00 09  0  0  0  9  0  1
1381 0 0 P = 180, Tmean = 19        1  1  1  1  1 00 10  0  0  0  9  0  1
1391 0 0 P = 200, Tmean = 19        1  1  1  1  1 00 11  0  0  0  9  0  1
1401 0 0 P = 220, Tmean = 19        1  1  1  1  1 00 12  0  0  0  9  0  1
1411 0 0 P = 260, Tmean = 19        1  1  1  1  1 00 13  0  0  0  9  0  1
1421 0 0 P = 300, Tmean = 19        1  1  1  1  1 00 14  0  0  0  9  0  1
1431 0 0 P = 400, Tmean = 19        1  1  1  1  1 00 15  0  0  0  9  0  1
1441 0 0 P = 500, Tmean = 19        1  1  1  1  1 00 16  0  0  0  9  0  1
1451 0 0 P =   0, Tmean = 21        1  1  1  1  1 00 01  0  0  0 10  0  1
1461 0 0 P = 020, Tmean = 21        1  1  1  1  1 00 02  0  0  0 10  0  1
1471 0 0 P = 040, Tmean = 21        1  1  1  1  1 00 03  0  0  0 10  0  1
1481 0 0 P = 060, Tmean = 21        1  1  1  1  1 00 04  0  0  0 10  0  1
1491 0 0 P = 080, Tmean = 21        1  1  1  1  1 00 05  0  0  0 10  0  1
1501 0 0 P = 100, Tmean = 21        1  1  1  1  1 00 06  0  0  0 10  0  1
1511 0 0 P = 120, Tmean = 21        1  1  1  1  1 00 07  0  0  0 10  0  1
1521 0 0 P = 140, Tmean = 21        1  1  1  1  1 00 08  0  0  0 10  0  1
1531 0 0 P = 160, Tmean = 21        1  1  1  1  1 00 09  0  0  0 10  0  1
1541 0 0 P = 180, Tmean = 21        1  1  1  1  1 00 10  0  0  0 10  0  1
1551 0 0 P = 200, Tmean = 21        1  1  1  1  1 00 11  0  0  0 10  0  1
1561 0 0 P = 220, Tmean = 21        1  1  1  1  1 00 12  0  0  0 10  0  1
1571 0 0 P = 260, Tmean = 21        1  1  1  1  1 00 13  0  0  0 10  0  1
1581 0 0 P = 300, Tmean = 21        1  1  1  1  1 00 14  0  0  0 10  0  1
1591 0 0 P = 400, Tmean = 21        1  1  1  1  1 00 15  0  0  0 10  0  1
1601 0 0 P = 500, Tmean = 21        1  1  1  1  1 00 16  0  0  0 10  0  1
1611 0 0 P =   0, Tmean = 23        1  1  1  1  1 00 01  0  0  0 11  0  1
1621 0 0 P = 020, Tmean = 23        1  1  1  1  1 00 02  0  0  0 11  0  1
1631 0 0 P = 040, Tmean = 23        1  1  1  1  1 00 03  0  0  0 11  0  1
1641 0 0 P = 060, Tmean = 23        1  1  1  1  1 00 04  0  0  0 11  0  1
1651 0 0 P = 080, Tmean = 23        1  1  1  1  1 00 05  0  0  0 11  0  1
1661 0 0 P = 100, Tmean = 23        1  1  1  1  1 00 06  0  0  0 11  0  1
1671 0 0 P = 120, Tmean = 23        1  1  1  1  1 00 07  0  0  0 11  0  1
1681 0 0 P = 140, Tmean = 23        1  1  1  1  1 00 08  0  0  0 11  0  1
1691 0 0 P = 160, Tmean = 23        1  1  1  1  1 00 09  0  0  0 11  0  1
1701 0 0 P = 180, Tmean = 23        1  1  1  1  1 00 10  0  0  0 11  0  1
1711 0 0 P = 200, Tmean = 23        1  1  1  1  1 00 11  0  0  0 11  0  1
1721 0 0 P = 220, Tmean = 23        1  1  1  1  1 00 12  0  0  0 11  0  1
1731 0 0 P = 260, Tmean = 23        1  1  1  1  1 00 13  0  0  0 11  0  1
1741 0 0 P = 300, Tmean = 23        1  1  1  1  1 00 14  0  0  0 11  0  1
1751 0 0 P = 400, Tmean = 23        1  1  1  1  1 00 15  0  0  0 11  0  1
1761 0 0 P = 500, Tmean = 23        1  1  1  1  1 00 16  0  0  0 11  0  1
1771 0 0 P =   0, Tmean = 24        1  1  1  1  1 00 01  0  0  0 12  0  1
1781 0 0 P = 020, Tmean = 24        1  1  1  1  1 00 02  0  0  0 12  0  1
1791 0 0 P = 040, Tmean = 24        1  1  1  1  1 00 03  0  0  0 12  0  1
1801 0 0 P = 060, Tmean = 24        1  1  1  1  1 00 04  0  0  0 12  0  1
1811 0 0 P = 080, Tmean = 24        1  1  1  1  1 00 05  0  0  0 12  0  1
1821 0 0 P = 100, Tmean = 24        1  1  1  1  1 00 06  0  0  0 12  0  1
1831 0 0 P = 120, Tmean = 24        1  1  1  1  1 00 07  0  0  0 12  0  1
1841 0 0 P = 140, Tmean = 24        1  1  1  1  1 00 08  0  0  0 12  0  1
1851 0 0 P = 160, Tmean = 24        1  1  1  1  1 00 09  0  0  0 12  0  1
1861 0 0 P = 180, Tmean = 24        1  1  1  1  1 00 10  0  0  0 12  0  1
1871 0 0 P = 200, Tmean = 24        1  1  1  1  1 00 11  0  0  0 12  0  1
1881 0 0 P = 220, Tmean = 24        1  1  1  1  1 00 12  0  0  0 12  0  1
1891 0 0 P = 260, Tmean = 24        1  1  1  1  1 00 13  0  0  0 12  0  1
1901 0 0 P = 300, Tmean = 24        1  1  1  1  1 00 14  0  0  0 12  0  1
1911 0 0 P = 400, Tmean = 24        1  1  1  1  1 00 15  0  0  0 12  0  1
1921 0 0 P = 500, Tmean = 24        1  1  1  1  1 00 16  0  0  0 12  0  1
1931 0 0 P =   0, Tmean = 25        1  1  1  1  1 00 01  0  0  0 13  0  1
1941 0 0 P = 020, Tmean = 25        1  1  1  1  1 00 02  0  0  0 13  0  1
1951 0 0 P = 040, Tmean = 25        1  1  1  1  1 00 03  0  0  0 13  0  1
1961 0 0 P = 060, Tmean = 25        1  1  1  1  1 00 04  0  0  0 13  0  1
1971 0 0 P = 080, Tmean = 25        1  1  1  1  1 00 05  0  0  0 13  0  1
1981 0 0 P = 100, Tmean = 25        1  1  1  1  1 00 06  0  0  0 13  0  1
1991 0 0 P = 120, Tmean = 25        1  1  1  1  1 00 07  0  0  0 13  0  1
2001 0 0 P = 140, Tmean = 25        1  1  1  1  1 00 08  0  0  0 13  0  1
2011 0 0 P = 160, Tmean = 25        1  1  1  1  1 00 09  0  0  0 13  0  1
2021 0 0 P = 180, Tmean = 25        1  1  1  1  1 00 10  0  0  0 13  0  1
2031 0 0 P = 200, Tmean = 25        1  1  1  1  1 00 11  0  0  0 13  0  1
2041 0 0 P = 220, Tmean = 25        1  1  1  1  1 00 12  0  0  0 13  0  1
2051 0 0 P = 260, Tmean = 25        1  1  1  1  1 00 13  0  0  0 13  0  1
2061 0 0 P = 300, Tmean = 25        1  1  1  1  1 00 14  0  0  0 13  0  1
2071 0 0 P = 400, Tmean = 25        1  1  1  1  1 00 15  0  0  0 13  0  1
2081 0 0 P = 500, Tmean = 25        1  1  1  1  1 00 16  0  0  0 13  0  1
2091 0 0 P =   0, Tmean = 26        1  1  1  1  1 00 01  0  0  0 14  0  1
2101 0 0 P = 020, Tmean = 26        1  1  1  1  1 00 02  0  0  0 14  0  1
2111 0 0 P = 040, Tmean = 26        1  1  1  1  1 00 03  0  0  0 14  0  1
2121 0 0 P = 060, Tmean = 26        1  1  1  1  1 00 04  0  0  0 14  0  1
2131 0 0 P = 080, Tmean = 26        1  1  1  1  1 00 05  0  0  0 14  0  1
2141 0 0 P = 100, Tmean = 26        1  1  1  1  1 00 06  0  0  0 14  0  1
2151 0 0 P = 120, Tmean = 26        1  1  1  1  1 00 07  0  0  0 14  0  1
2161 0 0 P = 140, Tmean = 26        1  1  1  1  1 00 08  0  0  0 14  0  1
2171 0 0 P = 160, Tmean = 26        1  1  1  1  1 00 09  0  0  0 14  0  1
2181 0 0 P = 180, Tmean = 26        1  1  1  1  1 00 10  0  0  0 14  0  1
2191 0 0 P = 200, Tmean = 26        1  1  1  1  1 00 11  0  0  0 14  0  1
2201 0 0 P = 220, Tmean = 26        1  1  1  1  1 00 12  0  0  0 14  0  1
2211 0 0 P = 260, Tmean = 26        1  1  1  1  1 00 13  0  0  0 14  0  1
2221 0 0 P = 300, Tmean = 26        1  1  1  1  1 00 14  0  0  0 14  0  1
2231 0 0 P = 400, Tmean = 26        1  1  1  1  1 00 15  0  0  0 14  0  1
2241 0 0 P = 500, Tmean = 26        1  1  1  1  1 00 16  0  0  0 14  0  1
2251 0 0 P =   0, Tmean = 27        1  1  1  1  1 00 01  0  0  0 15  0  1
2261 0 0 P = 020, Tmean = 27        1  1  1  1  1 00 02  0  0  0 15  0  1
2271 0 0 P = 040, Tmean = 27        1  1  1  1  1 00 03  0  0  0 15  0  1
2281 0 0 P = 060, Tmean = 27        1  1  1  1  1 00 04  0  0  0 15  0  1
2291 0 0 P = 080, Tmean = 27        1  1  1  1  1 00 05  0  0  0 15  0  1
2301 0 0 P = 100, Tmean = 27        1  1  1  1  1 00 06  0  0  0 15  0  1
2311 0 0 P = 120, Tmean = 27        1  1  1  1  1 00 07  0  0  0 15  0  1
2321 0 0 P = 140, Tmean = 27        1  1  1  1  1 00 08  0  0  0 15  0  1
2331 0 0 P = 160, Tmean = 27        1  1  1  1  1 00 09  0  0  0 15  0  1
2341 0 0 P = 180, Tmean = 27        1  1  1  1  1 00 10  0  0  0 15  0  1
2351 0 0 P = 200, Tmean = 27        1  1  1  1  1 00 11  0  0  0 15  0  1
2361 0 0 P = 220, Tmean = 27        1  1  1  1  1 00 12  0  0  0 15  0  1
2371 0 0 P = 260, Tmean = 27        1  1  1  1  1 00 13  0  0  0 15  0  1
2381 0 0 P = 300, Tmean = 27        1  1  1  1  1 00 14  0  0  0 15  0  1
2391 0 0 P = 400, Tmean = 27        1  1  1  1  1 00 15  0  0  0 15  0  1
2401 0 0 P = 500, Tmean = 27        1  1  1  1  1 00 16  0  0  0 15  0  1
2411 0 0 P =   0, Tmean = 28        1  1  1  1  1 00 01  0  0  0 16  0  1
2421 0 0 P = 020, Tmean = 28        1  1  1  1  1 00 02  0  0  0 16  0  1
2431 0 0 P = 040, Tmean = 28        1  1  1  1  1 00 03  0  0  0 16  0  1
2441 0 0 P = 060, Tmean = 28        1  1  1  1  1 00 04  0  0  0 16  0  1
2451 0 0 P = 080, Tmean = 28        1  1  1  1  1 00 05  0  0  0 16  0  1
2461 0 0 P = 100, Tmean = 28        1  1  1  1  1 00 06  0  0  0 16  0  1
2471 0 0 P = 120, Tmean = 28        1  1  1  1  1 00 07  0  0  0 16  0  1
2481 0 0 P = 140, Tmean = 28        1  1  1  1  1 00 08  0  0  0 16  0  1
2491 0 0 P = 160, Tmean = 28        1  1  1  1  1 00 09  0  0  0 16  0  1
2501 0 0 P = 180, Tmean = 28        1  1  1  1  1 00 10  0  0  0 16  0  1
2511 0 0 P = 200, Tmean = 28        1  1  1  1  1 00 11  0  0  0 16  0  1
2521 0 0 P = 220, Tmean = 28        1  1  1  1  1 00 12  0  0  0 16  0  1
2531 0 0 P = 260, Tmean = 28        1  1  1  1  1 00 13  0  0  0 16  0  1
2541 0 0 P = 300, Tmean = 28        1  1  1  1  1 00 14  0  0  0 16  0  1
2551 0 0 P = 400, Tmean = 28        1  1  1  1  1 00 15  0  0  0 16  0  1
2561 0 0 P = 500, Tmean = 28        1  1  1  1  1 00 16  0  0  0 16  0  1
2571 0 0 P =   0, Tmean = 29        1  1  1  1  1 00 01  0  0  0 17  0  1
2581 0 0 P = 020, Tmean = 29        1  1  1  1  1 00 02  0  0  0 17  0  1
2591 0 0 P = 040, Tmean = 29        1  1  1  1  1 00 03  0  0  0 17  0  1
2601 0 0 P = 060, Tmean = 29        1  1  1  1  1 00 04  0  0  0 17  0  1
2611 0 0 P = 080, Tmean = 29        1  1  1  1  1 00 05  0  0  0 17  0  1
2621 0 0 P = 100, Tmean = 29        1  1  1  1  1 00 06  0  0  0 17  0  1
2631 0 0 P = 120, Tmean = 29        1  1  1  1  1 00 07  0  0  0 17  0  1
2641 0 0 P = 140, Tmean = 29        1  1  1  1  1 00 08  0  0  0 17  0  1
2651 0 0 P = 160, Tmean = 29        1  1  1  1  1 00 09  0  0  0 17  0  1
2661 0 0 P = 180, Tmean = 29        1  1  1  1  1 00 10  0  0  0 17  0  1
2671 0 0 P = 200, Tmean = 29        1  1  1  1  1 00 11  0  0  0 17  0  1
2681 0 0 P = 220, Tmean = 29        1  1  1  1  1 00 12  0  0  0 17  0  1
2691 0 0 P = 260, Tmean = 29        1  1  1  1  1 00 13  0  0  0 17  0  1
2701 0 0 P = 300, Tmean = 29        1  1  1  1  1 00 14  0  0  0 17  0  1
2711 0 0 P = 400, Tmean = 29        1  1  1  1  1 00 15  0  0  0 17  0  1
2721 0 0 P = 500, Tmean = 29        1  1  1  1  1 00 16  0  0  0 17  0  1
2731 0 0 P =   0, Tmean = 30        1  1  1  1  1 00 01  0  0  0 18  0  1
2741 0 0 P = 020, Tmean = 30        1  1  1  1  1 00 02  0  0  0 18  0  1
2751 0 0 P = 040, Tmean = 30        1  1  1  1  1 00 03  0  0  0 18  0  1
2761 0 0 P = 060, Tmean = 30        1  1  1  1  1 00 04  0  0  0 18  0  1
2771 0 0 P = 080, Tmean = 30        1  1  1  1  1 00 05  0  0  0 18  0  1
2781 0 0 P = 100, Tmean = 30        1  1  1  1  1 00 06  0  0  0 18  0  1
2791 0 0 P = 120, Tmean = 30        1  1  1  1  1 00 07  0  0  0 18  0  1
2801 0 0 P = 140, Tmean = 30        1  1  1  1  1 00 08  0  0  0 18  0  1
2811 0 0 P = 160, Tmean = 30        1  1  1  1  1 00 09  0  0  0 18  0  1
2821 0 0 P = 180, Tmean = 30        1  1  1  1  1 00 10  0  0  0 18  0  1
2831 0 0 P = 200, Tmean = 30        1  1  1  1  1 00 11  0  0  0 18  0  1
2841 0 0 P = 220, Tmean = 30        1  1  1  1  1 00 12  0  0  0 18  0  1
2851 0 0 P = 260, Tmean = 30        1  1  1  1  1 00 13  0  0  0 18  0  1
2861 0 0 P = 300, Tmean = 30        1  1  1  1  1 00 14  0  0  0 18  0  1
2871 0 0 P = 400, Tmean = 30        1  1  1  1  1 00 15  0  0  0 18  0  1
2881 0 0 P = 500, Tmean = 30        1  1  1  1  1 00 16  0  0  0 18  0  1
2891 0 0 P =   0, Tmean = 31        1  1  1  1  1 00 01  0  0  0 19  0  1
2901 0 0 P = 020, Tmean = 31        1  1  1  1  1 00 02  0  0  0 19  0  1
2911 0 0 P = 040, Tmean = 31        1  1  1  1  1 00 03  0  0  0 19  0  1
2921 0 0 P = 060, Tmean = 31        1  1  1  1  1 00 04  0  0  0 19  0  1
2931 0 0 P = 080, Tmean = 31        1  1  1  1  1 00 05  0  0  0 19  0  1
2941 0 0 P = 100, Tmean = 31        1  1  1  1  1 00 06  0  0  0 19  0  1
2951 0 0 P = 120, Tmean = 31        1  1  1  1  1 00 07  0  0  0 19  0  1
2961 0 0 P = 140, Tmean = 31        1  1  1  1  1 00 08  0  0  0 19  0  1
2971 0 0 P = 160, Tmean = 31        1  1  1  1  1 00 09  0  0  0 19  0  1
2981 0 0 P = 180, Tmean = 31        1  1  1  1  1 00 10  0  0  0 19  0  1
2991 0 0 P = 200, Tmean = 31        1  1  1  1  1 00 11  0  0  0 19  0  1
3001 0 0 P = 220, Tmean = 31        1  1  1  1  1 00 12  0  0  0 19  0  1
3011 0 0 P = 260, Tmean = 31        1  1  1  1  1 00 13  0  0  0 19  0  1
3021 0 0 P = 300, Tmean = 31        1  1  1  1  1 00 14  0  0  0 19  0  1
3031 0 0 P = 400, Tmean = 31        1  1  1  1  1 00 15  0  0  0 19  0  1
3041 0 0 P = 500, Tmean = 31        1  1  1  1  1 00 16  0  0  0 19  0  1
3051 0 0 P =   0, Tmean = 33        1  1  1  1  1 00 01  0  0  0 20  0  1 
3061 0 0 P = 020, Tmean = 33        1  1  1  1  1 00 02  0  0  0 20  0  1
3071 0 0 P = 040, Tmean = 33        1  1  1  1  1 00 03  0  0  0 20  0  1
3081 0 0 P = 060, Tmean = 33        1  1  1  1  1 00 04  0  0  0 20  0  1
3091 0 0 P = 080, Tmean = 33        1  1  1  1  1 00 05  0  0  0 20  0  1
3101 0 0 P = 100, Tmean = 33        1  1  1  1  1 00 06  0  0  0 20  0  1
3111 0 0 P = 120, Tmean = 33        1  1  1  1  1 00 07  0  0  0 20  0  1
3121 0 0 P = 140, Tmean = 33        1  1  1  1  1 00 08  0  0  0 20  0  1
3131 0 0 P = 160, Tmean = 33        1  1  1  1  1 00 09  0  0  0 20  0  1
3141 0 0 P = 180, Tmean = 33        1  1  1  1  1 00 10  0  0  0 20  0  1
3151 0 0 P = 200, Tmean = 33        1  1  1  1  1 00 11  0  0  0 20  0  1
3161 0 0 P = 220, Tmean = 33        1  1  1  1  1 00 12  0  0  0 20  0  1
3171 0 0 P = 260, Tmean = 33        1  1  1  1  1 00 13  0  0  0 20  0  1
3181 0 0 P = 300, Tmean = 33        1  1  1  1  1 00 14  0  0  0 20  0  1
3191 0 0 P = 400, Tmean = 33        1  1  1  1  1 00 15  0  0  0 20  0  1
3201 0 0 P = 500, Tmean = 33        1  1  1  1  1 00 16  0  0  0 20  0  1
3211 0 0 P =   0, Tmean = 35        1  1  1  1  1 00 01  0  0  0 21  0  1
3221 0 0 P = 020, Tmean = 35        1  1  1  1  1 00 02  0  0  0 21  0  1
3231 0 0 P = 040, Tmean = 35        1  1  1  1  1 00 03  0  0  0 21  0  1
3241 0 0 P = 060, Tmean = 35        1  1  1  1  1 00 04  0  0  0 21  0  1
3251 0 0 P = 080, Tmean = 35        1  1  1  1  1 00 05  0  0  0 21  0  1
3261 0 0 P = 100, Tmean = 35        1  1  1  1  1 00 06  0  0  0 21  0  1
3271 0 0 P = 120, Tmean = 35        1  1  1  1  1 00 07  0  0  0 21  0  1
3281 0 0 P = 140, Tmean = 35        1  1  1  1  1 00 08  0  0  0 21  0  1
3291 0 0 P = 160, Tmean = 35        1  1  1  1  1 00 09  0  0  0 21  0  1
3301 0 0 P = 180, Tmean = 35        1  1  1  1  1 00 10  0  0  0 21  0  1
3311 0 0 P = 200, Tmean = 35        1  1  1  1  1 00 11  0  0  0 21  0  1
3321 0 0 P = 220, Tmean = 35        1  1  1  1  1 00 12  0  0  0 21  0  1
3331 0 0 P = 260, Tmean = 35        1  1  1  1  1 00 13  0  0  0 21  0  1
3341 0 0 P = 300, Tmean = 35        1  1  1  1  1 00 14  0  0  0 21  0  1
3351 0 0 P = 400, Tmean = 35        1  1  1  1  1 00 15  0  0  0 21  0  1
3361 0 0 P = 500, Tmean = 35        1  1  1  1  1 00 16  0  0  0 21  0  1
3371 0 0 P =   0, Tmean = 37        1  1  1  1  1 00 01  0  0  0 22  0  1
3381 0 0 P = 020, Tmean = 37        1  1  1  1  1 00 02  0  0  0 22  0  1
3391 0 0 P = 040, Tmean = 37        1  1  1  1  1 00 03  0  0  0 22  0  1
3401 0 0 P = 060, Tmean = 37        1  1  1  1  1 00 04  0  0  0 22  0  1
3411 0 0 P = 080, Tmean = 37        1  1  1  1  1 00 05  0  0  0 22  0  1
3421 0 0 P = 100, Tmean = 37        1  1  1  1  1 00 06  0  0  0 22  0  1
3431 0 0 P = 120, Tmean = 37        1  1  1  1  1 00 07  0  0  0 22  0  1
3441 0 0 P = 140, Tmean = 37        1  1  1  1  1 00 08  0  0  0 22  0  1
3451 0 0 P = 160, Tmean = 37        1  1  1  1  1 00 09  0  0  0 22  0  1
3461 0 0 P = 180, Tmean = 37        1  1  1  1  1 00 10  0  0  0 22  0  1
3471 0 0 P = 200, Tmean = 37        1  1  1  1  1 00 11  0  0  0 22  0  1
3481 0 0 P = 220, Tmean = 37        1  1  1  1  1 00 12  0  0  0 22  0  1
3491 0 0 P = 260, Tmean = 37        1  1  1  1  1 00 13  0  0  0 22  0  1
3501 0 0 P = 300, Tmean = 37        1  1  1  1  1 00 14  0  0  0 22  0  1
3511 0 0 P = 400, Tmean = 37        1  1  1  1  1 00 15  0  0  0 22  0  1
3521 0 0 P = 500, Tmean = 37        1  1  1  1  1 00 16  0  0  0 22  0  1
3531 0 0 P =   0, Tmean = 39        1  1  1  1  1 00 01  0  0  0 23  0  1
3541 0 0 P = 020, Tmean = 39        1  1  1  1  1 00 02  0  0  0 23  0  1
3551 0 0 P = 040, Tmean = 39        1  1  1  1  1 00 03  0  0  0 23  0  1
3561 0 0 P = 060, Tmean = 39        1  1  1  1  1 00 04  0  0  0 23  0  1
3571 0 0 P = 080, Tmean = 39        1  1  1  1  1 00 05  0  0  0 23  0  1
3581 0 0 P = 100, Tmean = 39        1  1  1  1  1 00 06  0  0  0 23  0  1
3591 0 0 P = 120, Tmean = 39        1  1  1  1  1 00 07  0  0  0 23  0  1
3601 0 0 P = 140, Tmean = 39        1  1  1  1  1 00 08  0  0  0 23  0  1
3611 0 0 P = 160, Tmean = 39        1  1  1  1  1 00 09  0  0  0 23  0  1
3621 0 0 P = 180, Tmean = 39        1  1  1  1  1 00 10  0  0  0 23  0  1
3631 0 0 P = 200, Tmean = 39        1  1  1  1  1 00 11  0  0  0 23  0  1
3641 0 0 P = 220, Tmean = 39        1  1  1  1  1 00 12  0  0  0 23  0  1
3651 0 0 P = 260, Tmean = 39        1  1  1  1  1 00 13  0  0  0 23  0  1
3661 0 0 P = 300, Tmean = 39        1  1  1  1  1 00 14  0  0  0 23  0  1
3671 0 0 P = 400, Tmean = 39        1  1  1  1  1 00 15  0  0  0 23  0  1
3681 0 0 P = 500, Tmean = 39        1  1  1  1  1 00 16  0  0  0 23  0  1
3691 0 0 P =   0, Tmean = 41        1  1  1  1  1 00 01  0  0  0 24  0  1
3701 0 0 P = 020, Tmean = 41        1  1  1  1  1 00 02  0  0  0 24  0  1
3711 0 0 P = 040, Tmean = 41        1  1  1  1  1 00 03  0  0  0 24  0  1
3721 0 0 P = 060, Tmean = 41        1  1  1  1  1 00 04  0  0  0 24  0  1
3731 0 0 P = 080, Tmean = 41        1  1  1  1  1 00 05  0  0  0 24  0  1
3741 0 0 P = 100, Tmean = 41        1  1  1  1  1 00 06  0  0  0 24  0  1
3751 0 0 P = 120, Tmean = 41        1  1  1  1  1 00 07  0  0  0 24  0  1
3761 0 0 P = 140, Tmean = 41        1  1  1  1  1 00 08  0  0  0 24  0  1
3771 0 0 P = 160, Tmean = 41        1  1  1  1  1 00 09  0  0  0 24  0  1
3781 0 0 P = 180, Tmean = 41        1  1  1  1  1 00 10  0  0  0 24  0  1
3791 0 0 P = 200, Tmean = 41        1  1  1  1  1 00 11  0  0  0 24  0  1
3801 0 0 P = 220, Tmean = 41        1  1  1  1  1 00 12  0  0  0 24  0  1
3811 0 0 P = 260, Tmean = 41        1  1  1  1  1 00 13  0  0  0 24  0  1
3821 0 0 P = 300, Tmean = 41        1  1  1  1  1 00 14  0  0  0 24  0  1
3831 0 0 P = 400, Tmean = 41        1  1  1  1  1 00 15  0  0  0 24  0  1
3841 0 0 P = 500, Tmean = 41        1  1  1  1  1 00 16  0  0  0 24  0  1
3851 0 0 P =   0, Tmean = 41        1  1  1  1  1 00 01  0  0  0 25  0  1
3861 0 0 P = 020, Tmean = 41        1  1  1  1  1 00 02  0  0  0 25  0  1
3871 0 0 P = 040, Tmean = 41        1  1  1  1  1 00 03  0  0  0 25  0  1
3881 0 0 P = 060, Tmean = 41        1  1  1  1  1 00 04  0  0  0 25  0  1
3891 0 0 P = 080, Tmean = 41        1  1  1  1  1 00 05  0  0  0 25  0  1
3901 0 0 P = 100, Tmean = 41        1  1  1  1  1 00 06  0  0  0 25  0  1
3911 0 0 P = 120, Tmean = 41        1  1  1  1  1 00 07  0  0  0 25  0  1
3921 0 0 P = 140, Tmean = 41        1  1  1  1  1 00 08  0  0  0 25  0  1
3931 0 0 P = 160, Tmean = 41        1  1  1  1  1 00 09  0  0  0 25  0  1
3941 0 0 P = 180, Tmean = 41        1  1  1  1  1 00 10  0  0  0 25  0  1
3951 0 0 P = 200, Tmean = 41        1  1  1  1  1 00 11  0  0  0 25  0  1
3961 0 0 P = 220, Tmean = 41        1  1  1  1  1 00 12  0  0  0 25  0  1
3971 0 0 P = 260, Tmean = 41        1  1  1  1  1 00 13  0  0  0 25  0  1
3981 0 0 P = 300, Tmean = 41        1  1  1  1  1 00 14  0  0  0 25  0  1