*EXP.DETAILS: IBHK8901TR HALK, MODEL DEVELOP. TARO 1989-HALEAKALA

@PEOPLE
-99
@ADDRESS
-99
@SITE
-99
*GENERAL
@ PAREA  PRNO  PLEN  PLDR  PLSP  PLAY HAREA  HRNO  HLEN  HARM.........
    -99   -99   -99   -99   -99   -99   -99   -99   -99   -99

*TREATMENTS                        -------------FACTOR LEVELS------------
@N R O C TNAME.................... CU FL SA IC MP MI MF MR MC MT ME MH SM
 1 1 1 0 LEHUA CULTIVARS            1  1  0  1  1  0  1  0  0  0  0  0  1
 2 1 1 0 BUNLON CULTIVARS           2  1  0  1  1  0  1  0  0  0  0  0  1

*CULTIVARS
@C CR INGENO CNAME
 1 TR IB0001 LEHUA
 2 TR IB0002 BUNLONG

*FIELDS
@L ID_FIELD WSTA....  FLSA  FLOB  FLDT  FLDD  FLDS  FLST SLTX  SLDP  ID_SOIL    FLNAME
 1 IBHK0001 IBHK8901     0     0 DR000     0     0 00000 -99    153  IBAR910035 -99
@L ...........XCRD ...........YCRD .....ELEV .............AREA .SLEN .FLWR .SLAS FLHST FHDUR
 1             -99             -99       -99               -99   -99   -99   -99   -99   -99

*INITIAL CONDITIONS
@C   PCR ICDAT  ICRT  ICND  ICRN  ICRE  ICWD ICRES ICREN ICREP ICRIP ICRID ICNAME
 1    TR 89107   100   -99     1     1   -99  1000   .53     0     0    20 -99
@C  ICBL  SH2O  SNH4  SNO3
 1     5  .227  12.5  29.4
 1    16  .227  12.5  29.4
 1    30  .211   9.1  19.6
 1    40  .178   2.5     8
 1    51  .178     1     5
 1    62  .163     1     1
 1    74  .163     1     1
 1    97  .113     1     1
 1   123  .056    .5    .5
 1   153  .073    .5    .1

*PLANTING DETAILS
@P PDATE EDATE  PPOP  PPOE  PLME  PLDS  PLRS  PLRD  PLDP  PLWT  PAGE  PENV  PLPH  SPRL                        PLNAME
 1 89109   -99  2.78  2.78     S     R    60     0    15   -99   -99    21   -99     0                        -99

*FERTILIZERS (INORGANIC)
@F FDATE  FMCD  FACD  FDEP  FAMN  FAMP  FAMK  FAMC  FAMO  FOCD FERNAME
 1 89107 FE005   -99     5    50   -99   -99   -99   -99   -99 -99
 1 89165 FE005   -99     0    50   -99   -99   -99   -99   -99 -99
 1 89279 FE005   -99     0    50   -99   -99   -99   -99   -99 -99

*SIMULATION CONTROLS
@N GENERAL     NYERS NREPS START SDATE RSEED SNAME.................... SMODEL
 1 GE              1     1     S 89107  2150 HALK, MODEL DEVELOP. TAR
@N OPTIONS     WATER NITRO SYMBI PHOSP POTAS DISES  CHEM  TILL   CO2
 1 OP              Y     Y     N     N     N     N     N     N     M
@N METHODS     WTHER INCON LIGHT EVAPO INFIL PHOTO HYDRO NSWIT MESOM MESEV MESOL
 1 ME              M     M     E     R     S     C     R     1     G     S     2
@N MANAGEMENT  PLANT IRRIG FERTI RESID HARVS
 1 MA              R     A     R     R     M
@N OUTPUTS     FNAME OVVEW SUMRY FROPT GROUT CAOUT WAOUT NIOUT MIOUT DIOUT VBOSE CHOUT OPOUT
 1 OU              N     Y     Y     1     Y     N     Y     Y     N     N     Y     N     N

@  AUTOMATIC MANAGEMENT
@N PLANTING    PFRST PLAST PH2OL PH2OU PH2OD PSTMX PSTMN
 1 PL          99155 99200    40   100    30    40    10
@N IRRIGATION  IMDEP ITHRL ITHRU IROFF IMETH IRAMT IREFF
 1 IR             50    50   100 GS000 IR001    10     1
@N NITROGEN    NMDEP NMTHR NAMNT NCODE NAOFF
 1 NI             30    50    25 FE001 GS000
@N RESIDUES    RIPCN RTIME RIDEP
 1 RE            100     1    20
@N HARVEST     HFRST HLAST HPCNP HPCNR
 1 HA              0 89365   100     0



