*EXP.DETAILS: IBKA9702TR KULA AG PARK, IRRIGATION EXPERIMENT

*GENERAL
@PEOPLE
-99
@ADDRESS
-99
@SITE
-99

*TREATMENTS                        -------------FACTOR LEVELS------------
@N R O C TNAME.................... CU FL SA IC MP MI MF MR MC MT ME MH SM
 1 1 1 0 0.1 of 0.5 pe              1  1  0  1  1  1  1  0  0  0  0  0  1
 2 1 1 0 0.2 of 0.5 pe              1  1  0  1  1  2  1  0  0  0  0  0  1
 3 1 1 0 0.3 of 0.5 pe              1  1  0  1  1  3  1  0  0  0  0  0  1
 4 1 1 0 0.4 of 0.5 pe              1  1  0  1  1  4  1  0  0  0  0  0  1
 5 1 1 0 0.5 of 0.5 pe              1  1  0  1  1  5  1  0  0  0  0  0  1
 6 1 1 0 0.6 of 0.5 pe              1  1  0  1  1  6  1  0  0  0  0  0  1
 7 1 1 0 0.7 of 0.5 pe              1  1  0  1  1  7  1  0  0  0  0  0  1
 8 1 1 0 0.8 of 0.5 pe              1  1  0  1  1  8  1  0  0  0  0  0  1
 9 1 1 0 0.9 of 0.5 pe              1  1  0  1  1  9  1  0  0  0  0  0  1
10 1 1 0 1.0 of 0.5 pe              1  1  0  1  1 10  1  0  0  0  0  0  1

*CULTIVARS
@C CR INGENO CNAME
 1 TR IB0010 LEHUA-MAUI

*FIELDS
@L ID_FIELD WSTA....  FLSA  FLOB  FLDT  FLDD  FLDS  FLST SLTX  SLDP  ID_SOIL    FLNAME
 1 IBKA0001 IBKA9701     0     0 DR000     0     0 00000 -99    -99  IB00830002 -99
@L ...........XCRD ...........YCRD .....ELEV .............AREA .SLEN .FLWR .SLAS FLHST FHDUR
 1             -99             -99       -99               -99   -99   -99   -99   -99   -99

*INITIAL CONDITIONS
@C   PCR ICDAT  ICRT  ICND  ICRN  ICRE  ICWD ICRES ICREN ICREP ICRIP ICRID ICNAME
 1    TR 97156   100   -99     1     1   -99  1000   .53     0     0    20 -99
@C  ICBL  SH2O  SNH4  SNO3
 1    15  .206  15.6  44.4
 1    30  .216   8.1  32.3
 1    45  .216   4.9  28.9
 1    60  .253   2.6  24.4
 1    75  .272   1.1    26
 1   150  .286   1.1  11.3

*PLANTING DETAILS
@P PDATE EDATE  PPOP  PPOE  PLME  PLDS  PLRS  PLRD  PLDP  PLWT  PAGE  PENV  PLPH  SPRL                        PLNAME
 1 97186   -99   2.7   2.7     S     R   122     0    15   -99   -99   -99     1     0                        -99

*IRRIGATION AND WATER MANAGEMENT
@I  EFIR  IDEP  ITHR  IEPT  IOFF  IAME  IAMT IRNAME
 1     1   -99   -99   -99   -99   -99    10 -99
@I IDATE  IROP IRVAL
 1 97156 IR001   1.8
 1 97163 IR001   1.8
 1 97170 IR001   1.8
 1 97177 IR001   1.8
 1 97184 IR001   1.8
 1 97191 IR001   1.8
 1 97198 IR001   1.8
 1 97205 IR001   1.8
 1 97212 IR001   1.8
 1 97219 IR001   1.8
 1 97226 IR001   1.8
 1 97233 IR001   1.8
 1 97240 IR001   1.8
 1 97247 IR001   1.8
 1 97254 IR001   1.8
 1 97261 IR001   1.8
 1 97268 IR001   1.8
 1 97275 IR001   1.8
 1 97282 IR001   1.8
 1 97289 IR001   1.8
 1 97296 IR001   1.8
 1 97303 IR001   1.8
 1 97310 IR001   1.8
 1 97317 IR001   1.8
 1 97324 IR001   1.8
 1 97331 IR001   1.8
 1 97338 IR001   1.8
 1 97345 IR001   1.8
 1 97352 IR001   1.8
 1 97359 IR001   1.8
 1 98001 IR001   1.8
 1 98008 IR001   1.8
 1 98015 IR001   1.8
 1 98022 IR001   1.8
 1 98029 IR001   1.8
 1 98036 IR001   1.8
 1 98043 IR001   1.8
 1 98050 IR001   1.8
 1 98057 IR001   1.8
 1 98064 IR001   1.8
 1 98071 IR001   1.8
 1 98078 IR001   1.8
 1 98085 IR001   1.8
 1 98092 IR001   1.8
 1 98099 IR001   1.8
 1 98106 IR001   1.8
 1 98113 IR001   1.8
 1 98120 IR001   1.8
 1 98127 IR001   1.8
 1 98134 IR001   1.8
 1 98141 IR001   1.8
 1 98148 IR001   1.8
 1 98155 IR001   1.8
 1 98162 IR001   1.8
 1 98169 IR001   1.8
 1 98176 IR001   1.8
 1 98183 IR001   1.8
@I  EFIR  IDEP  ITHR  IEPT  IOFF  IAME  IAMT IRNAME
 2     1   -99   -99   -99   -99   -99    10 -99
@I IDATE  IROP IRVAL
 2 97156 IR001   3.6
 2 97163 IR001   3.6
 2 97170 IR001   3.6
 2 97177 IR001   3.6
 2 97184 IR001   3.6
 2 97191 IR001   3.6
 2 97198 IR001   3.6
 2 97205 IR001   3.6
 2 97212 IR001   3.6
 2 97219 IR001   3.6
 2 97226 IR001   3.6
 2 97233 IR001   3.6
 2 97240 IR001   3.6
 2 97247 IR001   3.6
 2 97254 IR001   3.6
 2 97261 IR001   3.6
 2 97268 IR001   3.6
 2 97275 IR001   3.6
 2 97282 IR001   3.6
 2 97289 IR001   3.6
 2 97296 IR001   3.6
 2 97303 IR001   3.6
 2 97310 IR001   3.6
 2 97317 IR001   3.6
 2 97324 IR001   3.6
 2 97331 IR001   3.6
 2 97338 IR001   3.6
 2 97345 IR001   3.6
 2 97352 IR001   3.6
 2 97359 IR001   3.6
 2 98001 IR001   3.6
 2 98008 IR001   3.6
 2 98015 IR001   3.6
 2 98022 IR001   3.6
 2 98029 IR001   3.6
 2 98036 IR001   3.6
 2 98043 IR001   3.6
 2 98050 IR001   3.6
 2 98057 IR001   3.6
 2 98064 IR001   3.6
 2 98071 IR001   3.6
 2 98078 IR001   3.6
 2 98085 IR001   3.6
 2 98092 IR001   3.6
 2 98099 IR001   3.6
 2 98106 IR001   3.6
 2 98113 IR001   3.6
 2 98120 IR001   3.6
 2 98127 IR001   3.6
 2 98134 IR001   3.6
 2 98141 IR001   3.6
 2 98148 IR001   3.6
 2 98155 IR001   3.6
 2 98162 IR001   3.6
 2 98169 IR001   3.6
 2 98176 IR001   3.6
 2 98183 IR001   3.6
@I  EFIR  IDEP  ITHR  IEPT  IOFF  IAME  IAMT IRNAME
 3     1   -99   -99   -99   -99   -99    10 -99
@I IDATE  IROP IRVAL
 3 97156 IR001   5.4
 3 97163 IR001   5.4
 3 97170 IR001   5.4
 3 97177 IR001   5.4
 3 97184 IR001   5.4
 3 97191 IR001   5.4
 3 97198 IR001   5.4
 3 97205 IR001   5.4
 3 97212 IR001   5.4
 3 97219 IR001   5.4
 3 97226 IR001   5.4
 3 97233 IR001   5.4
 3 97240 IR001   5.4
 3 97247 IR001   5.4
 3 97254 IR001   5.4
 3 97261 IR001   5.4
 3 97268 IR001   5.4
 3 97275 IR001   5.4
 3 97282 IR001   5.4
 3 97289 IR001   5.4
 3 97296 IR001   5.4
 3 97303 IR001   5.4
 3 97310 IR001   5.4
 3 97317 IR001   5.4
 3 97324 IR001   5.4
 3 97331 IR001   5.4
 3 97338 IR001   5.4
 3 97345 IR001   5.4
 3 97352 IR001   5.4
 3 97359 IR001   5.4
 3 98001 IR001   5.4
 3 98008 IR001   5.4
 3 98015 IR001   5.4
 3 98022 IR001   5.4
 3 98029 IR001   5.4
 3 98036 IR001   5.4
 3 98043 IR001   5.4
 3 98050 IR001   5.4
 3 98057 IR001   5.4
 3 98064 IR001   5.4
 3 98071 IR001   5.4
 3 98078 IR001   5.4
 3 98085 IR001   5.4
 3 98092 IR001   5.4
 3 98099 IR001   5.4
 3 98106 IR001   5.4
 3 98113 IR001   5.4
 3 98120 IR001   5.4
 3 98127 IR001   5.4
 3 98134 IR001   5.4
 3 98141 IR001   5.4
 3 98148 IR001   5.4
 3 98155 IR001   5.4
 3 98162 IR001   5.4
 3 98169 IR001   5.4
 3 98176 IR001   5.4
 3 98183 IR001   5.4
@I  EFIR  IDEP  ITHR  IEPT  IOFF  IAME  IAMT IRNAME
 4     1   -99   -99   -99   -99   -99    10 -99
@I IDATE  IROP IRVAL
 4 97156 IR001   7.2
 4 97163 IR001   7.2
 4 97170 IR001   7.2
 4 97177 IR001   7.2
 4 97184 IR001   7.2
 4 97191 IR001   7.2
 4 97198 IR001   7.2
 4 97205 IR001   7.2
 4 97212 IR001   7.2
 4 97219 IR001   7.2
 4 97226 IR001   7.2
 4 97233 IR001   7.2
 4 97240 IR001   7.2
 4 97247 IR001   7.2
 4 97254 IR001   7.2
 4 97261 IR001   7.2
 4 97268 IR001   7.2
 4 97275 IR001   7.2
 4 97282 IR001   7.2
 4 97289 IR001   7.2
 4 97296 IR001   7.2
 4 97303 IR001   7.2
 4 97310 IR001   7.2
 4 97317 IR001   7.2
 4 97324 IR001   7.2
 4 97331 IR001   7.2
 4 97338 IR001   7.2
 4 97345 IR001   7.2
 4 97352 IR001   7.2
 4 97359 IR001   7.2
 4 98001 IR001   7.2
 4 98008 IR001   7.2
 4 98015 IR001   7.2
 4 98022 IR001   7.2
 4 98029 IR001   7.2
 4 98036 IR001   7.2
 4 98043 IR001   7.2
 4 98050 IR001   7.2
 4 98057 IR001   7.2
 4 98064 IR001   7.2
 4 98071 IR001   7.2
 4 98078 IR001   7.2
 4 98085 IR001   7.2
 4 98092 IR001   7.2
 4 98099 IR001   7.2
 4 98106 IR001   7.2
 4 98113 IR001   7.2
 4 98120 IR001   7.2
 4 98127 IR001   7.2
 4 98134 IR001   7.2
 4 98141 IR001   7.2
 4 98148 IR001   7.2
 4 98155 IR001   7.2
 4 98162 IR001   7.2
 4 98169 IR001   7.2
 4 98176 IR001   7.2
 4 98183 IR001   7.2
@I  EFIR  IDEP  ITHR  IEPT  IOFF  IAME  IAMT IRNAME
 5     1   -99   -99   -99   -99   -99    10 -99
@I IDATE  IROP IRVAL
 5 97156 IR001     9
 5 97163 IR001     9
 5 97170 IR001     9
 5 97177 IR001     9
 5 97184 IR001     9
 5 97191 IR001     9
 5 97198 IR001     9
 5 97205 IR001     9
 5 97212 IR001     9
 5 97219 IR001     9
 5 97226 IR001     9
 5 97233 IR001     9
 5 97240 IR001     9
 5 97247 IR001     9
 5 97254 IR001     9
 5 97261 IR001     9
 5 97268 IR001     9
 5 97275 IR001     9
 5 97282 IR001     9
 5 97289 IR001     9
 5 97296 IR001     9
 5 97303 IR001     9
 5 97310 IR001     9
 5 97317 IR001     9
 5 97324 IR001     9
 5 97331 IR001     9
 5 97338 IR001     9
 5 97345 IR001     9
 5 97352 IR001     9
 5 97359 IR001     9
 5 98001 IR001     9
 5 98008 IR001     9
 5 98015 IR001     9
 5 98022 IR001     9
 5 98029 IR001     9
 5 98036 IR001     9
 5 98043 IR001     9
 5 98050 IR001     9
 5 98057 IR001     9
 5 98064 IR001     9
 5 98071 IR001     9
 5 98078 IR001     9
 5 98085 IR001     9
 5 98092 IR001     9
 5 98099 IR001     9
 5 98106 IR001     9
 5 98113 IR001     9
 5 98120 IR001     9
 5 98127 IR001     9
 5 98134 IR001     9
 5 98141 IR001     9
 5 98148 IR001     9
 5 98155 IR001     9
 5 98162 IR001     9
 5 98169 IR001     9
 5 98176 IR001     9
 5 98183 IR001     9
@I  EFIR  IDEP  ITHR  IEPT  IOFF  IAME  IAMT IRNAME
 6     1   -99   -99   -99   -99   -99    10 -99
@I IDATE  IROP IRVAL
 6 97156 IR001  10.8
 6 97163 IR001  10.8
 6 97170 IR001  10.8
 6 97177 IR001  10.8
 6 97184 IR001  10.8
 6 97191 IR001  10.8
 6 97198 IR001  10.8
 6 97205 IR001  10.8
 6 97212 IR001  10.8
 6 97219 IR001  10.8
 6 97226 IR001  10.8
 6 97233 IR001  10.8
 6 97240 IR001  10.8
 6 97247 IR001  10.8
 6 97254 IR001  10.8
 6 97261 IR001  10.8
 6 97268 IR001  10.8
 6 97275 IR001  10.8
 6 97282 IR001  10.8
 6 97289 IR001  10.8
 6 97296 IR001  10.8
 6 97303 IR001  10.8
 6 97310 IR001  10.8
 6 97317 IR001  10.8
 6 97324 IR001  10.8
 6 97331 IR001  10.8
 6 97338 IR001  10.8
 6 97345 IR001  10.8
 6 97352 IR001  10.8
 6 97359 IR001  10.8
 6 98001 IR001  10.8
 6 98008 IR001  10.8
 6 98015 IR001  10.8
 6 98022 IR001  10.8
 6 98029 IR001  10.8
 6 98036 IR001  10.8
 6 98043 IR001  10.8
 6 98050 IR001  10.8
 6 98057 IR001  10.8
 6 98064 IR001  10.8
 6 98071 IR001  10.8
 6 98078 IR001  10.8
 6 98085 IR001  10.8
 6 98092 IR001  10.8
 6 98099 IR001  10.8
 6 98106 IR001  10.8
 6 98113 IR001  10.8
 6 98120 IR001  10.8
 6 98127 IR001  10.8
 6 98134 IR001  10.8
 6 98141 IR001  10.8
 6 98148 IR001  10.8
 6 98155 IR001  10.8
 6 98162 IR001  10.8
 6 98169 IR001  10.8
 6 98176 IR001  10.8
 6 98183 IR001  10.8
@I  EFIR  IDEP  ITHR  IEPT  IOFF  IAME  IAMT IRNAME
 7     1   -99   -99   -99   -99   -99    10 -99
@I IDATE  IROP IRVAL
 7 97156 IR001  12.6
 7 97163 IR001  12.6
 7 97170 IR001  12.6
 7 97177 IR001  12.6
 7 97184 IR001  12.6
 7 97191 IR001  12.6
 7 97198 IR001  12.6
 7 97205 IR001  12.6
 7 97212 IR001  12.6
 7 97219 IR001  12.6
 7 97226 IR001  12.6
 7 97233 IR001  12.6
 7 97240 IR001  12.6
 7 97247 IR001  12.6
 7 97254 IR001  12.6
 7 97261 IR001  12.6
 7 97268 IR001  12.6
 7 97275 IR001  12.6
 7 97282 IR001  12.6
 7 97289 IR001  12.6
 7 97296 IR001  12.6
 7 97303 IR001  12.6
 7 97310 IR001  12.6
 7 97317 IR001  12.6
 7 97324 IR001  12.6
 7 97331 IR001  12.6
 7 97338 IR001  12.6
 7 97345 IR001  12.6
 7 97352 IR001  12.6
 7 97359 IR001  12.6
 7 98001 IR001  12.6
 7 98008 IR001  12.6
 7 98015 IR001  12.6
 7 98022 IR001  12.6
 7 98029 IR001  12.6
 7 98036 IR001  12.6
 7 98043 IR001  12.6
 7 98050 IR001  12.6
 7 98057 IR001  12.6
 7 98064 IR001  12.6
 7 98071 IR001  12.6
 7 98078 IR001  12.6
 7 98085 IR001  12.6
 7 98092 IR001  12.6
 7 98099 IR001  12.6
 7 98106 IR001  12.6
 7 98113 IR001  12.6
 7 98120 IR001  12.6
 7 98127 IR001  12.6
 7 98134 IR001  12.6
 7 98141 IR001  12.6
 7 98148 IR001  12.6
 7 98155 IR001  12.6
 7 98162 IR001  12.6
 7 98169 IR001  12.6
 7 98176 IR001  12.6
 7 98183 IR001  12.6
@I  EFIR  IDEP  ITHR  IEPT  IOFF  IAME  IAMT IRNAME
 8     1   -99   -99   -99   -99   -99    10 -99
@I IDATE  IROP IRVAL
 8 97156 IR001  14.4
 8 97163 IR001  14.4
 8 97170 IR001  14.4
 8 97177 IR001  14.4
 8 97184 IR001  14.4
 8 97191 IR001  14.4
 8 97198 IR001  14.4
 8 97205 IR001  14.4
 8 97212 IR001  14.4
 8 97219 IR001  14.4
 8 97226 IR001  14.4
 8 97233 IR001  14.4
 8 97240 IR001  14.4
 8 97247 IR001  14.4
 8 97254 IR001  14.4
 8 97261 IR001  14.4
 8 97268 IR001  14.4
 8 97275 IR001  14.4
 8 97282 IR001  14.4
 8 97289 IR001  14.4
 8 97296 IR001  14.4
 8 97303 IR001  14.4
 8 97310 IR001  14.4
 8 97317 IR001  14.4
 8 97324 IR001  14.4
 8 97331 IR001  14.4
 8 97338 IR001  14.4
 8 97345 IR001  14.4
 8 97352 IR001  14.4
 8 97359 IR001  14.4
 8 98001 IR001  14.4
 8 98008 IR001  14.4
 8 98015 IR001  14.4
 8 98022 IR001  14.4
 8 98029 IR001  14.4
 8 98036 IR001  14.4
 8 98043 IR001  14.4
 8 98050 IR001  14.4
 8 98057 IR001  14.4
 8 98064 IR001  14.4
 8 98071 IR001  14.4
 8 98078 IR001  14.4
 8 98085 IR001  14.4
 8 98092 IR001  14.4
 8 98099 IR001  14.4
 8 98106 IR001  14.4
 8 98113 IR001  14.4
 8 98120 IR001  14.4
 8 98127 IR001  14.4
 8 98134 IR001  14.4
 8 98141 IR001  14.4
 8 98148 IR001  14.4
 8 98155 IR001  14.4
 8 98162 IR001  14.4
 8 98169 IR001  14.4
 8 98176 IR001  14.4
 8 98183 IR001  14.4
@I  EFIR  IDEP  ITHR  IEPT  IOFF  IAME  IAMT IRNAME
 9     1   -99   -99   -99   -99   -99    10 -99
@I IDATE  IROP IRVAL
 9 97156 IR001  16.2
 9 97163 IR001  16.2
 9 97170 IR001  16.2
 9 97177 IR001  16.2
 9 97184 IR001  16.2
 9 97191 IR001  16.2
 9 97198 IR001  16.2
 9 97205 IR001  16.2
 9 97212 IR001  16.2
 9 97219 IR001  16.2
 9 97226 IR001  16.2
 9 97233 IR001  16.2
 9 97240 IR001  16.2
 9 97247 IR001  16.2
 9 97254 IR001  16.2
 9 97261 IR001  16.2
 9 97268 IR001  16.2
 9 97275 IR001  16.2
 9 97282 IR001  16.2
 9 97289 IR001  16.2
 9 97296 IR001  16.2
 9 97303 IR001  16.2
 9 97310 IR001  16.2
 9 97317 IR001  16.2
 9 97324 IR001  16.2
 9 97331 IR001  16.2
 9 97338 IR001  16.2
 9 97345 IR001  16.2
 9 97352 IR001  16.2
 9 97359 IR001  16.2
 9 98001 IR001  16.2
 9 98008 IR001  16.2
 9 98015 IR001  16.2
 9 98022 IR001  16.2
 9 98029 IR001  16.2
 9 98036 IR001  16.2
 9 98043 IR001  16.2
 9 98050 IR001  16.2
 9 98057 IR001  16.2
 9 98064 IR001  16.2
 9 98071 IR001  16.2
 9 98078 IR001  16.2
 9 98085 IR001  16.2
 9 98092 IR001  16.2
 9 98099 IR001  16.2
 9 98106 IR001  16.2
 9 98113 IR001  16.2
 9 98120 IR001  16.2
 9 98127 IR001  16.2
 9 98134 IR001  16.2
 9 98141 IR001  16.2
 9 98148 IR001  16.2
 9 98155 IR001  16.2
 9 98162 IR001  16.2
 9 98169 IR001  16.2
 9 98176 IR001  16.2
 9 98183 IR001  16.2
@I  EFIR  IDEP  ITHR  IEPT  IOFF  IAME  IAMT IRNAME
10     1   -99   -99   -99   -99   -99    10 -99
@I IDATE  IROP IRVAL
10 97156 IR001    18
10 97163 IR001    18
10 97170 IR001    18
10 97177 IR001    18
10 97184 IR001    18
10 97191 IR001    18
10 97198 IR001    18
10 97205 IR001    18
10 97212 IR001    18
10 97219 IR001    18
10 97226 IR001    18
10 97233 IR001    18
10 97240 IR001    18
10 97247 IR001    18
10 97254 IR001    18
10 97261 IR001    18
10 97268 IR001    18
10 97275 IR001    18
10 97282 IR001    18
10 97289 IR001    18
10 97296 IR001    18
10 97303 IR001    18
10 97310 IR001    18
10 97317 IR001    18
10 97324 IR001    18
10 97331 IR001    18
10 97338 IR001    18
10 97345 IR001    18
10 97352 IR001    18
10 97359 IR001    18
10 98001 IR001    18
10 98008 IR001    18
10 98015 IR001    18
10 98022 IR001    18
10 98029 IR001    18
10 98036 IR001    18
10 98043 IR001    18
10 98050 IR001    18
10 98057 IR001    18
10 98064 IR001    18
10 98071 IR001    18
10 98078 IR001    18
10 98085 IR001    18
10 98092 IR001    18
10 98099 IR001    18
10 98106 IR001    18
10 98113 IR001    18
10 98120 IR001    18
10 98127 IR001    18
10 98134 IR001    18
10 98141 IR001    18
10 98148 IR001    18
10 98155 IR001    18
10 98162 IR001    18
10 98169 IR001    18
10 98176 IR001    18
10 98183 IR001    18

*FERTILIZERS (INORGANIC)
@F FDATE  FMCD  FACD  FDEP  FAMN  FAMP  FAMK  FAMC  FAMO  FOCD FERNAME
 1 97156 FE005   -99     0   118   -99   -99   -99   -99   -99 -99
 1 97186 FE005   -99     0   168   -99   -99   -99   -99   -99 -99
 1 97217 FE005   -99     0   168   -99   -99   -99   -99   -99 -99
 1 97248 FE005   -99     0   168   -99   -99   -99   -99   -99 -99
 1 97278 FE005   -99     0   168   -99   -99   -99   -99   -99 -99

*SIMULATION CONTROLS
@N GENERAL     NYERS NREPS START SDATE RSEED SNAME.................... SMODEL
 1 GE              1     1     S 97156  2150 KULA AG PARK, IRRIGATION
@N OPTIONS     WATER NITRO SYMBI PHOSP POTAS DISES  CHEM  TILL   CO2
 1 OP              Y     Y     N     N     N     N     N     N     M
@N METHODS     WTHER INCON LIGHT EVAPO INFIL PHOTO HYDRO NSWIT MESOM MESEV MESOL
 1 ME              M     M     E     R     S     C     R     1     G     S     2
@N MANAGEMENT  PLANT IRRIG FERTI RESID HARVS
 1 MA              R     R     R     R     M
@N OUTPUTS     FNAME OVVEW SUMRY FROPT GROUT CAOUT WAOUT NIOUT MIOUT DIOUT VBOSE CHOUT OPOUT
 1 OU              N     Y     Y     1     Y     N     Y     Y     N     N     Y     N     N

@  AUTOMATIC MANAGEMENT
@N PLANTING    PFRST PLAST PH2OL PH2OU PH2OD PSTMX PSTMN
 1 PL          97155 97200    40   100    30    40    10
@N IRRIGATION  IMDEP ITHRL ITHRU IROFF IMETH IRAMT IREFF
 1 IR             30    50   100 GS000 IR001    10     1
@N NITROGEN    NMDEP NMTHR NAMNT NCODE NAOFF
 1 NI             30    50    25 FE001 GS000
@N RESIDUES    RIPCN RTIME RIDEP
 1 RE            100     1    20
@N HARVEST     HFRST HLAST HPCNP HPCNR
 1 HA              0 97365   100     0



