*EXP.DETAILS: IBKA9701TR KULA AG PARK, IRRIGATION EXPERIMENT

@PEOPLE
-99
@ADDRESS
-99
@SITE
-99
*GENERAL
@ PAREA  PRNO  PLEN  PLDR  PLSP  PLAY HAREA  HRNO  HLEN  HARM.........
    -99   -99   -99   -99   -99   -99   -99   -99   -99   -99

*TREATMENTS                        -------------FACTOR LEVELS------------
@N R O C TNAME.................... CU FL SA IC MP MI MF MR MC MT ME MH SM
 1 1 1 0 0.50 PE                    1  1  0  1  1  1  1  0  0  0  0  0  1
 2 1 1 0 0.75 PE                    1  1  0  1  1  2  1  0  0  0  0  0  1
 3 1 1 0 0.88 PE                    1  1  0  1  1  3  1  0  0  0  0  0  1
 4 1 1 0 1.00 PE                    1  1  0  1  1  4  1  0  0  0  0  0  1

*CULTIVARS
@C CR INGENO CNAME
 1 TR IB0010 LEHUA-MAUI

*FIELDS
@L ID_FIELD WSTA....  FLSA  FLOB  FLDT  FLDD  FLDS  FLST SLTX  SLDP  ID_SOIL    FLNAME
 1 IBKA0001 IBKA9701     0     0 DR000     0     0 00000 -99    -99  IB00830002 -99
@L ...........XCRD ...........YCRD .....ELEV .............AREA .SLEN .FLWR .SLAS FLHST FHDUR
 1             -99             -99       -99               -99   -99   -99   -99   -99   -99

*INITIAL CONDITIONS
@C   PCR ICDAT  ICRT  ICND  ICRN  ICRE  ICWD ICRES ICREN ICREP ICRIP ICRID ICNAME
 1    TR 97156   100   -99     1     1   -99  1000   .53     0     0    20 -99
@C  ICBL  SH2O  SNH4  SNO3
 1    15  .206   9.6  44.4
 1    30  .216   3.1  32.3
 1    45  .216   2.9  28.9
 1    60  .253   2.6  24.4
 1    75  .272   1.1    26
 1   150  .286   1.1  11.3

*PLANTING DETAILS
@P PDATE EDATE  PPOP  PPOE  PLME  PLDS  PLRS  PLRD  PLDP  PLWT  PAGE  PENV  PLPH  SPRL                        PLNAME
 1 97156   -99   2.7   2.7     S     R   122     0    15   -99   -99   -99     1     0                        -99

*IRRIGATION AND WATER MANAGEMENT
@I  EFIR  IDEP  ITHR  IEPT  IOFF  IAME  IAMT IRNAME
 1     1   -99   -99   -99   -99   -99    10 -99
@I IDATE  IROP IRVAL
 1 97156 IR001    18
 1 97163 IR001    18
 1 97170 IR001    14
 1 97177 IR001    15
 1 97184 IR001    13
 1 97191 IR001     0
 1 97198 IR001    17
 1 97205 IR001    18
 1 97212 IR001    18
 1 97219 IR001    17
 1 97226 IR001    17
 1 97233 IR001    12
 1 97240 IR001    15
 1 97247 IR001    18
 1 97254 IR001    18
 1 97261 IR001    15
 1 97268 IR001     7
 1 97275 IR001     1
 1 97282 IR001    18
 1 97289 IR001     0
 1 97296 IR001    17
 1 97303 IR001    18
 1 97310 IR001     0
 1 97317 IR001     0
 1 97324 IR001     0
 1 97331 IR001    17
 1 97338 IR001    13
 1 97345 IR001    18
 1 97352 IR001    18
 1 97359 IR001    17
 1 98001 IR001     4
 1 98008 IR001     0
 1 98015 IR001    18
 1 98022 IR001    18
 1 98029 IR001    10
 1 98036 IR001    12
 1 98043 IR001    14
 1 98050 IR001    18
 1 98057 IR001     9
 1 98064 IR001    18
 1 98071 IR001    18
 1 98078 IR001    18
 1 98085 IR001    15
 1 98092 IR001    13
 1 98099 IR001    17
 1 98106 IR001    12
 1 98113 IR001    18
 1 98120 IR001     5
 1 98127 IR001    18
 1 98134 IR001    18
 1 98141 IR001    18
 1 98148 IR001    18
 1 98155 IR001    18
 1 98162 IR001    18
 1 98169 IR001    18
 1 98176 IR001    18
 1 98183 IR001    18
@I  EFIR  IDEP  ITHR  IEPT  IOFF  IAME  IAMT IRNAME
 2     1   -99   -99   -99   -99   -99    10 -99
@I IDATE  IROP IRVAL
 2 97156 IR001    27
 2 97163 IR001    27
 2 97170 IR001    23
 2 97177 IR001    24
 2 97184 IR001    22
 2 97191 IR001     5
 2 97198 IR001    26
 2 97205 IR001    27
 2 97212 IR001    27
 2 97219 IR001    26
 2 97226 IR001    26
 2 97233 IR001    21
 2 97240 IR001    24
 2 97247 IR001    27
 2 97254 IR001    27
 2 97261 IR001    24
 2 97268 IR001    16
 2 97275 IR001    10
 2 97282 IR001    27
 2 97289 IR001     7
 2 97296 IR001    26
 2 97303 IR001    27
 2 97310 IR001     0
 2 97317 IR001     8
 2 97324 IR001     1
 2 97331 IR001    26
 2 97338 IR001    22
 2 97345 IR001    27
 2 97352 IR001    27
 2 97359 IR001    26
 2 98001 IR001    13
 2 98008 IR001     0
 2 98015 IR001    27
 2 98022 IR001    27
 2 98029 IR001    19
 2 98036 IR001    21
 2 98043 IR001    23
 2 98050 IR001    27
 2 98057 IR001    18
 2 98064 IR001    27
 2 98071 IR001    27
 2 98078 IR001    27
 2 98085 IR001    24
 2 98092 IR001    22
 2 98099 IR001    26
 2 98106 IR001    21
 2 98113 IR001    27
 2 98120 IR001    14
 2 98127 IR001    27
 2 98134 IR001    27
 2 98141 IR001    27
 2 98148 IR001    27
 2 98155 IR001    27
 2 98162 IR001    27
 2 98169 IR001    27
 2 98176 IR001    27
 2 98183 IR001    27
@I  EFIR  IDEP  ITHR  IEPT  IOFF  IAME  IAMT IRNAME
 3     1   -99   -99   -99   -99   -99    10 -99
@I IDATE  IROP IRVAL
 3 97156 IR001    31
 3 97163 IR001    31
 3 97170 IR001    27
 3 97177 IR001    28
 3 97184 IR001    26
 3 97191 IR001     9
 3 97198 IR001    30
 3 97205 IR001    31
 3 97212 IR001    31
 3 97219 IR001    30
 3 97226 IR001    30
 3 97233 IR001    25
 3 97240 IR001    28
 3 97247 IR001    31
 3 97254 IR001    31
 3 97261 IR001    28
 3 97268 IR001    20
 3 97275 IR001    14
 3 97282 IR001    31
 3 97289 IR001    11
 3 97296 IR001    30
 3 97303 IR001    31
 3 97310 IR001     0
 3 97317 IR001    12
 3 97324 IR001     5
 3 97331 IR001    30
 3 97338 IR001    26
 3 97345 IR001    31
 3 97352 IR001    31
 3 97359 IR001    30
 3 98001 IR001    17
 3 98008 IR001     0
 3 98015 IR001    31
 3 98022 IR001    31
 3 98029 IR001    23
 3 98036 IR001    25
 3 98043 IR001    27
 3 98050 IR001    31
 3 98057 IR001    22
 3 98064 IR001    31
 3 98071 IR001    31
 3 98078 IR001    31
 3 98085 IR001    28
 3 98092 IR001    26
 3 98099 IR001    30
 3 98106 IR001    25
 3 98113 IR001    31
 3 98120 IR001    18
 3 98127 IR001    31
 3 98134 IR001    31
 3 98141 IR001    31
 3 98148 IR001    31
 3 98155 IR001    31
 3 98162 IR001    31
 3 98169 IR001    31
 3 98176 IR001    31
 3 98183 IR001    31
@I  EFIR  IDEP  ITHR  IEPT  IOFF  IAME  IAMT IRNAME
 4     1   -99   -99   -99   -99   -99    10 -99
@I IDATE  IROP IRVAL
 4 97156 IR001    36
 4 97163 IR001    36
 4 97170 IR001    32
 4 97177 IR001    33
 4 97184 IR001    31
 4 97191 IR001    14
 4 97198 IR001    35
 4 97205 IR001    36
 4 97212 IR001    36
 4 97219 IR001    35
 4 97226 IR001    35
 4 97233 IR001    30
 4 97240 IR001    33
 4 97247 IR001    36
 4 97254 IR001    36
 4 97261 IR001    33
 4 97268 IR001    25
 4 97275 IR001    19
 4 97282 IR001    36
 4 97289 IR001    16
 4 97296 IR001    35
 4 97303 IR001    36
 4 97310 IR001     0
 4 97317 IR001    17
 4 97324 IR001    10
 4 97331 IR001    35
 4 97338 IR001    31
 4 97345 IR001    36
 4 97352 IR001    36
 4 97359 IR001    35
 4 98001 IR001    22
 4 98008 IR001     1
 4 98015 IR001    36
 4 98022 IR001    36
 4 98029 IR001    18
 4 98036 IR001    30
 4 98043 IR001    32
 4 98050 IR001    36
 4 98057 IR001    27
 4 98064 IR001    36
 4 98071 IR001    36
 4 98078 IR001    36
 4 98085 IR001    33
 4 98092 IR001    31
 4 98099 IR001    35
 4 98106 IR001    30
 4 98113 IR001    36
 4 98120 IR001    23
 4 98127 IR001    36
 4 98134 IR001    36
 4 98141 IR001    36
 4 98148 IR001    36
 4 98155 IR001    36
 4 98162 IR001    36
 4 98169 IR001    36
 4 98176 IR001    36
 4 98183 IR001    36

*FERTILIZERS (INORGANIC)
@F FDATE  FMCD  FACD  FDEP  FAMN  FAMP  FAMK  FAMC  FAMO  FOCD FERNAME
 1 97156 FE005   -99     0   118   -99   -99   -99   -99   -99 -99
 1 97186 FE005   -99     0   168   -99   -99   -99   -99   -99 -99
 1 97217 FE005   -99     0   168   -99   -99   -99   -99   -99 -99
 1 97248 FE005   -99     0   168   -99   -99   -99   -99   -99 -99
 1 97278 FE005   -99     0   168   -99   -99   -99   -99   -99 -99

*SIMULATION CONTROLS
@N GENERAL     NYERS NREPS START SDATE RSEED SNAME.................... SMODEL
 1 GE              1     1     S 97156  2150 KULA AG PARK, IRRIGATION
@N OPTIONS     WATER NITRO SYMBI PHOSP POTAS DISES  CHEM  TILL   CO2
 1 OP              Y     Y     N     N     N     N     N     N     M
@N METHODS     WTHER INCON LIGHT EVAPO INFIL PHOTO HYDRO NSWIT MESOM MESEV MESOL
 1 ME              M     M     E     R     S     C     R     1     G     S     2
@N MANAGEMENT  PLANT IRRIG FERTI RESID HARVS
 1 MA              R     R     R     R     M
@N OUTPUTS     FNAME OVVEW SUMRY FROPT GROUT CAOUT WAOUT NIOUT MIOUT DIOUT VBOSE CHOUT OPOUT
 1 OU              N     Y     Y     1     Y     N     Y     Y     N     N     Y     N     N

@  AUTOMATIC MANAGEMENT
@N PLANTING    PFRST PLAST PH2OL PH2OU PH2OD PSTMX PSTMN
 1 PL          97155 97200    40   100    30    40    10
@N IRRIGATION  IMDEP ITHRL ITHRU IROFF IMETH IRAMT IREFF
 1 IR             30    50   100 GS000 IR001    10     1
@N NITROGEN    NMDEP NMTHR NAMNT NCODE NAOFF
 1 NI             30    50    25 FE001 GS000
@N RESIDUES    RIPCN RTIME RIDEP
 1 RE            100     1    20
@N HARVEST     HFRST HLAST HPCNP HPCNR
 1 HA              0 97365   100     0



