*EXP.DETAILS: IBWM9101TR TARO NITROGEN EXPERIMENT, WAIMANALO

@PEOPLE
-99
@ADDRESS
-99
@SITE
-99
*GENERAL
@ PAREA  PRNO  PLEN  PLDR  PLSP  PLAY HAREA  HRNO  HLEN  HARM.........
    -99   -99   -99   -99   -99   -99   -99   -99   -99   -99

*TREATMENTS                        -------------FACTOR LEVELS------------
@N R O C TNAME.................... CU FL SA IC MP MI MF MR MC MT ME MH SM
 1 1 1 0 0 NITROGEN                 1  1  0  1  1  0  0  0  0  0  0  0  1
 2 1 1 0 75 NITROGEN                1  1  0  1  1  0  1  0  0  0  0  0  1
 3 1 1 0 150 NITROGEN               1  1  0  1  1  0  2  0  0  0  0  0  1
 4 1 1 0 300 NITROGEN               1  1  0  1  1  0  3  0  0  0  0  0  1

*CULTIVARS
@C CR INGENO CNAME
 1 TR IB0001 LEHUA

*FIELDS
@L ID_FIELD WSTA....  FLSA  FLOB  FLDT  FLDD  FLDS  FLST SLTX  SLDP  ID_SOIL    FLNAME
 1 IBWM0001 IBWM9101     0     0 DR000     0     0 00000 -99     66  IBAR910034 -99
@L ...........XCRD ...........YCRD .....ELEV .............AREA .SLEN .FLWR .SLAS FLHST FHDUR
 1             -99             -99       -99               -99   -99   -99   -99   -99   -99

*INITIAL CONDITIONS
@C   PCR ICDAT  ICRT  ICND  ICRN  ICRE  ICWD ICRES ICREN ICREP ICRIP ICRID ICNAME
 1    TR 91098   100   -99     1     1   -99  1000   .53     0     0    15 -99
@C  ICBL  SH2O  SNH4  SNO3
 1     5   .26     2     5
 1    18   .26     2     3
 1    28   .26   1.5   2.1
 1    38   .26    .5   1.1
 1    52   .26    .5   1.1
 1    66   .26    .5     1

*PLANTING DETAILS
@P PDATE EDATE  PPOP  PPOE  PLME  PLDS  PLRS  PLRD  PLDP  PLWT  PAGE  PENV  PLPH  SPRL                        PLNAME
 1 91098   -99   4.4   4.4     S     R    76     0    20   -99   -99   -99   -99     0                        -99

*FERTILIZERS (INORGANIC)
@F FDATE  FMCD  FACD  FDEP  FAMN  FAMP  FAMK  FAMC  FAMO  FOCD FERNAME
 1 91102 FE005   -99     5    25   -99   -99   -99   -99   -99 -99
 1 91119 FE005   -99     5    25   -99   -99   -99   -99   -99 -99
 1 91155 FE005   -99     5    25   -99   -99   -99   -99   -99 -99
 2 91102 FE005   -99     5    50   -99   -99   -99   -99   -99 -99
 2 91119 FE005   -99     5    50   -99   -99   -99   -99   -99 -99
 2 91155 FE005   -99     5    50   -99   -99   -99   -99   -99 -99
 3 91102 FE005   -99    10    50   -99   -99   -99   -99   -99 -99
 3 91119 FE005   -99     5    50   -99   -99   -99   -99   -99 -99
 3 91155 FE005   -99     5    50   -99   -99   -99   -99   -99 -99
 3 91183 FE005   -99     5    50   -99   -99   -99   -99   -99 -99
 3 91227 FE005   -99     5    50   -99   -99   -99   -99   -99 -99
 3 91263 FE005   -99     5    50   -99   -99   -99   -99   -99 -99

*SIMULATION CONTROLS
@N GENERAL     NYERS NREPS START SDATE RSEED SNAME.................... SMODEL
 1 GE              1     1     S 91098  2150 TARO NITROGEN EXPERIMENT
@N OPTIONS     WATER NITRO SYMBI PHOSP POTAS DISES  CHEM  TILL   CO2
 1 OP              Y     Y     Y     N     N     N     N     N     M
@N METHODS     WTHER INCON LIGHT EVAPO INFIL PHOTO HYDRO NSWIT MESOM MESEV MESOL
 1 ME              M     M     E     R     S     C     R     1     G     S     2
@N MANAGEMENT  PLANT IRRIG FERTI RESID HARVS
 1 MA              R     A     R     R     M
@N OUTPUTS     FNAME OVVEW SUMRY FROPT GROUT CAOUT WAOUT NIOUT MIOUT DIOUT VBOSE CHOUT OPOUT
 1 OU              N     Y     Y     1     Y     N     Y     Y     N     N     Y     N     N

@  AUTOMATIC MANAGEMENT
@N PLANTING    PFRST PLAST PH2OL PH2OU PH2OD PSTMX PSTMN
 1 PL          99155 99200    40   100    30    40    10
@N IRRIGATION  IMDEP ITHRL ITHRU IROFF IMETH IRAMT IREFF
 1 IR             30    80   100 GS000 IR001    10     1
@N NITROGEN    NMDEP NMTHR NAMNT NCODE NAOFF
 1 NI             30    50    25 FE001 GS000
@N RESIDUES    RIPCN RTIME RIDEP
 1 RE            100     1    20
@N HARVEST     HFRST HLAST HPCNP HPCNR
 1 HA              0 91365   100     0



