*EXP.DETAILS: UFBR9101TM 1991 POTENTIAL YIELD, SUNNY, SUBIRRIGATED

*GENERAL
@PEOPLE
 B.L. McNeal and C.D. Stanley
@ADDRESS
University of Florida, Gainesville, Florida, USA
@SITE
Bradenton, Florida

@NOTES
 Initial experiment with tomatoes (cv. "Sunny") subirrigated, well-
 watered and well-fertilized. No obvious crop stresses. Measurements were
 taken in guard rows of Alex Csizinsky's plots at GCREC Bradenton, Fla.

*TREATMENTS                        -------------FACTOR LEVELS------------
@N R O C TNAME.................... CU FL SA IC MP MI MF MR MC MT ME MH SM
 1 1 0 0 SUNNY sub-irrigated        1  1  0  1  1  1  0  0  0  0  0  1  1

*CULTIVARS
@C CR INGENO CNAME
 1 TM TM0007 Sunny S-D 2010

*FIELDS
@L ID_FIELD WSTA....  FLSA  FLOB  FLDT  FLDD  FLDS  FLST SLTX  SLDP  ID_SOIL    FLNAME
 1 UFBR0001 UFBR9101     0     0   000     0     0  0000 SA     180  UFBR950001 -99
@L ...........XCRD ...........YCRD .....ELEV .............AREA .SLEN .FLWR .SLAS FLHST FHDUR
 1               0               0         0                 0     0     0     0   -99   -99

*SOIL ANALYSIS
@A SADAT  SMHB  SMPX  SMKE  SANAME
 1 91044   -99   -99   -99  -99
@A  SABL  SADM  SAOC  SANI SAPHW SAPHB  SAPX  SAKE  SASC
 1    15   -99   -99   -99   -99   -99   -99   -99   -99

*INITIAL CONDITIONS
@C   PCR ICDAT  ICRT  ICND  ICRN  ICRE  ICWD ICRES ICREN ICREP ICRIP ICRID ICNAME
 1    PR 91044     1     0     1     1   -99     0     0     0   100    15 -99
@C  ICBL  SH2O  SNH4  SNO3
 1     7  .086    .2     3
 1    15  .086    .1    .1
 1    22  .086     0    .1
 1    30  .086     0     0
 1    45  .086     0     0
 1    90  .076     0     0
 1   120  .076     0     0
 1   150   .13     0     0
 1   180  .258     0     0

*PLANTING DETAILS
@P PDATE EDATE  PPOP  PPOE  PLME  PLDS  PLRS  PLRD  PLDP  PLWT  PAGE  PENV  PLPH  SPRL                        PLNAME
 1 91077   -99     1     1     T     R   137    90     1     3    24    25     1     0                        24

*IRRIGATION AND WATER MANAGEMENT
@I  EFIR  IDEP  ITHR  IEPT  IOFF  IAME  IAMT IRNAME
 1   .75   -99   -99   -99   -99   -99   -99 -99
@I IDATE  IROP IRVAL
 1 91044 IR001    10
 1 91050 IR001    10
 1 91055 IR001     1
 1 91060 IR001    20
 1 91064 IR001     1
 1 91069 IR001    20
 1 91074 IR001    20
 1 91079 IR001    10
 1 91084 IR001    25
 1 91086 IR001    10
 1 91089 IR001    25
 1 91094 IR001     1
 1 91099 IR001    10
 1 91104 IR001    10
 1 91109 IR001    10
 1 91114 IR001    10
 1 91119 IR001    30
 1 91124 IR001    30
 1 91129 IR001    30
 1 91134 IR001    30
 1 91139 IR001    30
 1 91144 IR001    30
 1 91149 IR001    30
 1 91154 IR001    30
 1 91159 IR001    30
 1 91164 IR001    30
 1 91169 IR001    30
 1 91174 IR001    30
 1 91179 IR001    30
 1 91184 IR001    30

*FERTILIZERS (INORGANIC)
@F FDATE  FMCD  FACD  FDEP  FAMN  FAMP  FAMK  FAMC  FAMO  FOCD FERNAME
 1 91044   -99   -99   -99   -99   -99   -99   -99   -99   -99 -99

*HARVEST DETAILS
@H HDATE  HSTG  HCOM HSIZE   HPC  HBPC HNAME
 1 91164 GS000   -99   -99   -99     0 

*SIMULATION CONTROLS
@N GENERAL     NYERS NREPS START SDATE RSEED SNAME.................... SMODEL
 1 GE              1     1     S 91044  2150 POTENTIAL YIELD
@N OPTIONS     WATER NITRO SYMBI PHOSP POTAS DISES  CHEM  TILL   CO2
 1 OP              N     N     N     N     N     N     N     N     M
@N METHODS     WTHER INCON LIGHT EVAPO INFIL PHOTO HYDRO NSWIT MESOM MESEV MESOL
 1 ME              M     M     E     R     S     L     R     1     G     S     2
@N MANAGEMENT  PLANT IRRIG FERTI RESID HARVS
 1 MA              R     R     R     N     M
@N OUTPUTS     FNAME OVVEW SUMRY FROPT GROUT CAOUT WAOUT NIOUT MIOUT DIOUT VBOSE CHOUT OPOUT
 1 OU              N     Y     Y     1     Y     N     Y     Y     N     N     Y     N     N

@  AUTOMATIC MANAGEMENT
@N PLANTING    PFRST PLAST PH2OL PH2OU PH2OD PSTMX PSTMN
 1 PL          09164 09164    40   100    30    45    40
@N IRRIGATION  IMDEP ITHRL ITHRU IROFF IMETH IRAMT IREFF
 1 IR             45    50   100 GS000 SI001    10   .75
@N NITROGEN    NMDEP NMTHR NAMNT NCODE NAOFF
 1 NI            200    50    25 SI001 SI001
@N RESIDUES    RIPCN RTIME RIDEP
 1 RE            100    60    20
@N HARVEST     HFRST HLAST HPCNP HPCNR
 1 HA            182 91182    75     0



