*EXP.DETAILS: UFBR9401TM 1994 FERTILIZER TRIAL, SUNNY, BRADENTON

*GENERAL
@PEOPLE
 J.M.S. Scholberg, C.D. Stanley, B.L.M. McNeal
@ADDRESS
University of Florida, Gainesville, Florida, USA
@SITE
Bradenton, Florida
@NOTES
 Fertilizer experiment with cv. "Sunny" subirrigated, well-watered. The water
 table was maintained at 18" and fertilizer N-rates were 180, 255, and 333 kg
 of N/ha. Two weeks after transplanting salt stress occured in part of the pl
 due to fertilizer placement. Parts were replanted which increased the spacia
 variability within the field. Measurements were taken at both ends of field

*TREATMENTS                        -------------FACTOR LEVELS------------
@N R O C TNAME.................... CU FL SA IC MP MI MF MR MC MT ME MH SM
 4 1 0 0 Sunny, Avg, auto,N-off     1  1  0  1  1  1  4  0  0  0  0  1  1
! 1 1 0 0 94-180 N AUTO IRR.         1  1  0  1  1  1  1  0  0  0  0  1  1
! 2 1 0 0 94-255 N AUTO IRR.         1  1  0  1  1  1  2  0  0  0  0  1  1
! 3 1 0 0 94-333 N AUTO IRR.         1  1  0  1  1  1  3  0  0  0  0  1  1

*CULTIVARS
@C CR INGENO CNAME
 1 TM TM0007 Sunny S-D

*FIELDS
@L ID_FIELD WSTA....  FLSA  FLOB  FLDT  FLDD  FLDS  FLST SLTX  SLDP  ID_SOIL    FLNAME
 1 UFBR0001 UFBR9401     0     0 DR000     0     0  0000 SA     180  UFBR950001 -99
@L ...........XCRD ...........YCRD .....ELEV .............AREA .SLEN .FLWR .SLAS FLHST FHDUR
 1               0               0         0                 0     0     0     0   -99   -99

*INITIAL CONDITIONS
@C   PCR ICDAT  ICRT  ICND  ICRN  ICRE  ICWD ICRES ICREN ICREP ICRIP ICRID ICNAME
 1    PR 94060     1     0     1     1   -99     0     0     0   100    15 -99
@C  ICBL  SH2O  SNH4  SNO3
 1    18  .133    .5     2
 1    36  .222    .5     2
 1    50    .3    .5     2
 1    74  .389     0     0
 1    81    .4     0     0
 1   119    .4     0     0
 1   173    .4     0     0
 1   190    .4     0     0
 1   203    .4     0     0

*PLANTING DETAILS
@P PDATE EDATE  PPOP  PPOE  PLME  PLDS  PLRS  PLRD  PLDP  PLWT  PAGE  PENV  PLPH  SPRL                        PLNAME
 1 94060   -99   1.1   1.1     T     R   152    90     1     3    25    25     1     0                        -99

*IRRIGATION AND WATER MANAGEMENT
@I  EFIR  IDEP  ITHR  IEPT  IOFF  IAME  IAMT IRNAME
 1   .95     5   -99   -99   -99   -99   -99 -99
@I IDATE  IROP IRVAL
 1 94061 IR007     3
 1 94062 IR007     3
 1 94063 IR007     3
 1 94064 IR007     3
 1 94065 IR007     3
 1 94066 IR007     3
 1 94067 IR007     3
 1 94068 IR007     3
 1 94069 IR007     3
 1 94070 IR007     3
 1 94071 IR007     3
 1 94072 IR007     3
 1 94073 IR007     3
 1 94074 IR007     3
 1 94075 IR007     3
 1 94076 IR007     3
 1 94077 IR007     3
 1 94078 IR007     3
 1 94079 IR007     3
 1 94080 IR007     4
 1 94081 IR007     4
 1 94082 IR007     3
 1 94083 IR007     3
 1 94084 IR007     4
 1 94085 IR007     3
 1 94086 IR007     3
 1 94087 IR007     4
 1 94088 IR007     4
 1 94089 IR007     3
 1 94090 IR007     3
 1 94091 IR007     3
 1 94092 IR007     4
 1 94093 IR007     4
 1 94094 IR007     4
 1 94095 IR007     3
 1 94096 IR007     4
 1 94097 IR007     4
 1 94098 IR007     4
 1 94099 IR007     4
 1 94100 IR007     4
 1 94101 IR007     4
 1 94102 IR007     5
 1 94103 IR007     4
 1 94104 IR007     4
 1 94105 IR007     4
 1 94106 IR007     4
 1 94107 IR007     4
 1 94108 IR007     4
 1 94109 IR007     4
 1 94110 IR007     4
 1 94111 IR007     3
 1 94112 IR007     3
 1 94113 IR007     4
 1 94113 IR007     4
 1 94114 IR007     3
 1 94115 IR007     4
 1 94116 IR007     4
 1 94117 IR007     4
 1 94118 IR007     5
 1 94119 IR007     5
 1 94120 IR007     4
 1 94121 IR007     5
 1 94122 IR007     5
 1 94123 IR007     5
 1 94124 IR007     5
 1 94125 IR007     5
 1 94126 IR007     5
 1 94127 IR007     5
 1 94128 IR007     4
 1 94129 IR007     5
 1 94130 IR007     4
 1 94131 IR007     5
 1 94132 IR007     4
 1 94133 IR007     4
 1 94134 IR007     5
 1 94135 IR007     5
 1 94136 IR007     5
 1 94137 IR007     3
 1 94138 IR007     3
 1 94139 IR007     5
 1 94140 IR007     4
 1 94141 IR007     5
 1 94142 IR007     5
 1 94143 IR007     5
 1 94144 IR007     5
 1 94145 IR007     5
 1 94146 IR007     5
 1 94147 IR007     5
 1 94148 IR007     5
 1 94149 IR007     4
 1 94150 IR007     4
 1 94151 IR007     5
 1 94152 IR007     5
 1 94153 IR007     3
 1 94154 IR007     2
 1 94155 IR007     2
 1 94156 IR007     4
 1 94157 IR007     4
 1 94158 IR007     3
 1 94159 IR007     3
 1 94160 IR007     5
 1 94161 IR007     5
 1 94162 IR007     5
 1 94163 IR007     6
 1 94164 IR007     6
 1 94165 IR007     4
 1 94166 IR007     6
 1 94167 IR007     6
 1 94168 IR007     6
 1 94169 IR007     6
 1 94160 IR007     6
 1 94161 IR007     6
 1 94162 IR007     6
 1 94163 IR007     6
 1 94164 IR007     6
 1 94165 IR007     6
 1 94166 IR007     6
 1 94167 IR007     6
 1 94168 IR007     6
 1 94169 IR007     5
 1 94170 IR007     5
 1 94171 IR007     5
 1 94172 IR007     5
 1 94173 IR007     5
 1 94174 IR007     5
 1 94175 IR007     5

*FERTILIZERS (INORGANIC)
@F FDATE  FMCD  FACD  FDEP  FAMN  FAMP  FAMK  FAMC  FAMO  FOCD FERNAME
 1 94050 FE001 AP001    10   180     0     0     0     0   -99 -99
 2 94050 FE001 AP001    10   255     0     0     0     0   -99 -99
 3 94050 FE001 AP001    10   333     0     0     0     0   -99 -99
 4 94050 FE001 AP001    10   255     0     0     0     0   -99 -99

*HARVEST DETAILS
@H HDATE  HSTG  HCOM HSIZE   HPC  HBPC HNAME
 1 94160 GS000   -99   -99   -99     0 

*SIMULATION CONTROLS
@N GENERAL     NYERS NREPS START SDATE RSEED SNAME.................... SMODEL
 1 GE              1     1     S 94050  2150 FERT TRIAL
@N OPTIONS     WATER NITRO SYMBI PHOSP POTAS DISES  CHEM  TILL   CO2
 1 OP              N     N     N     N     N     N     N     N     M
@N METHODS     WTHER INCON LIGHT EVAPO INFIL PHOTO HYDRO NSWIT MESOM MESEV MESOL
 1 ME              M     M     E     R     S     L     R     1     G     S     2
@N MANAGEMENT  PLANT IRRIG FERTI RESID HARVS
 1 MA              R     A     R     N     M
@N OUTPUTS     FNAME OVVEW SUMRY FROPT GROUT CAOUT WAOUT NIOUT MIOUT DIOUT VBOSE CHOUT OPOUT
 1 OU              N     Y     Y     1     Y     Y     Y     Y     N     N     Y     N     N

@  AUTOMATIC MANAGEMENT
@N PLANTING    PFRST PLAST PH2OL PH2OU PH2OD PSTMX PSTMN
 1 PL          10099 10099    40   100    30    45    40
@N IRRIGATION  IMDEP ITHRL ITHRU IROFF IMETH IRAMT IREFF
 1 IR             30    80   100 GS000 SI001    10     1
@N NITROGEN    NMDEP NMTHR NAMNT NCODE NAOFF
 1 NI            200    50    25 SI001 SI001
@N RESIDUES    RIPCN RTIME RIDEP
 1 RE            100    60    20
@N HARVEST     HFRST HLAST HPCNP HPCNR
 1 HA            160 94160    75     0



