*EXP.DETAILS: UFBR9502TM SPRING 1995,SUNNY,SUB-IRR.,BRADENTON,FL

*GENERAL
@PEOPLE
Scholberg, collected by B. L. McNeal with Bradenton collaborators
@ADDRESS
Subirrigated, plastic mulch
@SITE
-99

*TREATMENTS                        -------------FACTOR LEVELS------------
@N R O C TNAME.................... CU FL SA IC MP MI MF MR MC MT ME MH SM
 1 1 0 0 Aauto irr,N-BAl 'OFF'      1  1  0  1  1  1  1  0  0  0  0  1  1
! 2 1 0 0 No wat bal N-BAL 'OFF'     1  1  0  1  1  1  1  0  0  0  0  1  2
! 3 1 0 0 A.I. N-B 'ON' Mulched      1  2  0  1  1  1  1  0  0  0  0  1  2
! 4 1 0 0 N Sub-irr.  Mulched        1  3  0  1  1  1  1  0  0  0  0  1  3

*CULTIVARS
@C CR INGENO CNAME
 1 TM TM0007 Sunny S-D

*FIELDS
@L ID_FIELD WSTA....  FLSA  FLOB  FLDT  FLDD  FLDS  FLST SLTX  SLDP  ID_SOIL    FLNAME
 1 UFBR0001 UFBR9501   -99     0 DR000     0     0  0000 SA     180  UFBR950001 -99
 2 UFBR0002 UFBR9501   -99     0 DR000     0     0  0000 SA     180  UFBR950002 -99
 3 UFBR0003 UFBR9501   -99     0 DR000     0     0  0000 SA     180  UFBR950003 -99
@L ...........XCRD ...........YCRD .....ELEV .............AREA .SLEN .FLWR .SLAS FLHST FHDUR
 1             -99             -99       -99               -99   -99   -99   -99   -99   -99
 2             -99             -99       -99               -99   -99   -99   -99   -99   -99
 3             -99             -99       -99               -99   -99   -99   -99   -99   -99

*SOIL ANALYSIS
@A SADAT  SMHB  SMPX  SMKE  SANAME
 1 95044   -99   -99   -99  -99
@A  SABL  SADM  SAOC  SANI SAPHW SAPHB  SAPX  SAKE  SASC
 1    15   -99   -99   -99   -99   -99   -99   -99   -99

*INITIAL CONDITIONS
@C   PCR ICDAT  ICRT  ICND  ICRN  ICRE  ICWD ICRES ICREN ICREP ICRIP ICRID ICNAME
 1   -99 95064     1     0     1     1   -99   -99   -99   -99   -99   -99 -99
@C  ICBL  SH2O  SNH4  SNO3
 1    18  .133    .5     1
 1    36   .22    .5     1
 1    50    .3    .3     1
 1    74    .4     0     0
 1    81    .4     0     0
 1   119    .4     0     0
 1   173    .4     0     0
 1   190    .4     0     0
 1   203    .4     0     0

*PLANTING DETAILS
@P PDATE EDATE  PPOP  PPOE  PLME  PLDS  PLRS  PLRD  PLDP  PLWT  PAGE  PENV  PLPH  SPRL                        PLNAME
 1 95072   -99   1.1   1.1     T     R   152    90     1     3    28    25     1   -99                        -99

*IRRIGATION AND WATER MANAGEMENT
@I  EFIR  IDEP  ITHR  IEPT  IOFF  IAME  IAMT IRNAME
 1   .75    20    80    95   500 IR007   500 -99
@I IDATE  IROP IRVAL
 1 95044 IR007    10
 1 95045 IR007    10
 1 95046 IR007     1
 1 95047 IR007    20
 1 95048 IR007     1
 1 95049 IR007    20
 1 95050 IR007    20
 1 95051 IR007    10
 1 95052 IR007    25
 1 95053 IR007    10
 1 95054 IR007    25
 1 95055 IR007     1
 1 95056 IR007    10
 1 95057 IR007    10
 1 95058 IR007    10
 1 95059 IR007    10
 1 95060 IR007    30
 1 95061 IR007    30
 1 95062 IR007    30
 1 95063 IR007    30
 1 95064 IR007    30
 1 95065 IR007    30
 1 95066 IR007    30
 1 95067 IR007    30
 1 95068 IR007    30
 1 95069 IR007    30
 1 95070 IR007    10
 1 95071 IR007    10
 1 95072 IR007     1
 1 95073 IR007    20
 1 95074 IR007     1
 1 95075 IR007    20
 1 95076 IR007    20
 1 95077 IR007    10
 1 95078 IR007    25
 1 95079 IR007    10
 1 95080 IR007    25
 1 95081 IR007     1
 1 95082 IR007    10
 1 95083 IR007    10
 1 95084 IR007    10
 1 95085 IR007    10
 1 95086 IR007    30
 1 95087 IR007    30
 1 95088 IR007    30
 1 95089 IR007    30
 1 95089 IR007    30
 1 95090 IR007    30
 1 95091 IR007    10
 1 95092 IR007    25
 1 95093 IR007    10
 1 95094 IR007    25
 1 95095 IR007     1
 1 95096 IR007    10
 1 95097 IR007    10
 1 95098 IR007    10
 1 95099 IR007    10
 1 95100 IR007    30
 1 95101 IR007    30
 1 95102 IR007    30
 1 95103 IR007    30
 1 95104 IR007    30
 1 95105 IR007    30
 1 95106 IR007    30
 1 95107 IR007    30
 1 95108 IR007    30
 1 95109 IR007    30
 1 95110 IR007    10
 1 95111 IR007    10
 1 95112 IR007     1
 1 95113 IR007    20
 1 95114 IR007     1
 1 95115 IR007    20
 1 95116 IR007    20
 1 95117 IR007    10
 1 95118 IR007    25
 1 95119 IR007    10
 1 95120 IR007    25
 1 95121 IR007     1
 1 95122 IR007    10
 1 95123 IR007    10
 1 95124 IR007    10
 1 95125 IR007    10
 1 95126 IR007    30
 1 95127 IR007    30
 1 95128 IR007    30
 1 95129 IR007    30
 1 95130 IR007    30
 1 95131 IR007    30
 1 95132 IR007    30
 1 95133 IR007    30
 1 95134 IR007    30
 1 95135 IR007    30
 1 95136 IR007    30
 1 95137 IR007    30
 1 95138 IR007    30
 1 95139 IR007    30
 1 95140 IR007    10
 1 95141 IR007    10
 1 95142 IR007     1
 1 95143 IR007    20
 1 95144 IR007     1
 1 95145 IR007    20
 1 95146 IR007    20
 1 95147 IR007    10
 1 95148 IR007    25
 1 95149 IR007    10
 1 95150 IR007    25
 1 95151 IR007     1
 1 95152 IR007    10
 1 95153 IR007    10
 1 95154 IR007    10
 1 95155 IR007    10
 1 95156 IR007    30
 1 95157 IR007    30
 1 95158 IR007    30
 1 95159 IR007    30
 1 95160 IR007    30
 1 95161 IR007    10
 1 95162 IR007    25
 1 95163 IR007    10
 1 95164 IR007    25
 1 95165 IR007     1

*FERTILIZERS (INORGANIC)
@F FDATE  FMCD  FACD  FDEP  FAMN  FAMP  FAMK  FAMC  FAMO  FOCD FERNAME
 1 95063 FE016 AP004     5     0   100     0     0     0     0 -99
 1 95064 FE016 AP004     5     0     0   200     0     0     0 -99
 1 95065 FE001 AP004     5   200     0     0     0     0     0 -99

*HARVEST DETAILS
@H HDATE  HSTG  HCOM HSIZE   HPC  HBPC HNAME
 1 95157 GS000   -99   -99   -99   -99 

*SIMULATION CONTROLS
@N GENERAL     NYERS NREPS START SDATE RSEED SNAME.................... SMODEL
 1 GE              1     1     S 95044  2150 Fert Trial
@N OPTIONS     WATER NITRO SYMBI PHOSP POTAS DISES  CHEM  TILL   CO2
 1 OP              Y     N     N     N     N     N     N     N     M
@N METHODS     WTHER INCON LIGHT EVAPO INFIL PHOTO HYDRO NSWIT MESOM MESEV MESOL
 1 ME              M     M     E     R     S     L     R     1     G     S     2
@N MANAGEMENT  PLANT IRRIG FERTI RESID HARVS
 1 MA              R     A     R     N     R
@N OUTPUTS     FNAME OVVEW SUMRY FROPT GROUT CAOUT WAOUT NIOUT MIOUT DIOUT VBOSE CHOUT OPOUT
 1 OU              N     Y     Y     1     Y     Y     Y     Y     N     N     Y     N     N

@  AUTOMATIC MANAGEMENT
@N PLANTING    PFRST PLAST PH2OL PH2OU PH2OD PSTMX PSTMN
 1 PL          99064 99064    40   100    30    45    40
@N IRRIGATION  IMDEP ITHRL ITHRU IROFF IMETH IRAMT IREFF
 1 IR             30    80   100 GS000 IR007    10   .75
@N NITROGEN    NMDEP NMTHR NAMNT NCODE NAOFF
 1 NI            200    50    25 SI001 SI001
@N RESIDUES    RIPCN RTIME RIDEP
 1 RE            100    60    20
@N HARVEST     HFRST HLAST HPCNP HPCNR
 1 HA            157 95157    75     0

@N GENERAL     NYERS NREPS START SDATE RSEED SNAME.................... SMODEL
 2 GE              1     1     S 95044  2150 Fert Trial
@N OPTIONS     WATER NITRO SYMBI PHOSP POTAS DISES  CHEM  TILL   CO2
 2 OP              N     N     N     N     N     N     N     N     R
@N METHODS     WTHER INCON LIGHT EVAPO INFIL PHOTO HYDRO NSWIT MESOM MESEV MESOL
 2 ME              M     M     E     R     S     L     R     1     G     R     2
@N MANAGEMENT  PLANT IRRIG FERTI RESID HARVS
 2 MA              R     A     R     N     R
@N OUTPUTS     FNAME OVVEW SUMRY FROPT GROUT CAOUT WAOUT NIOUT MIOUT DIOUT VBOSE CHOUT OPOUT
 2 OU              N     Y     Y     1     Y     Y     Y     Y     N     N     Y     N     N

@  AUTOMATIC MANAGEMENT
@N PLANTING    PFRST PLAST PH2OL PH2OU PH2OD PSTMX PSTMN
 2 PL          99064 99064    40   100    30    45    40
@N IRRIGATION  IMDEP ITHRL ITHRU IROFF IMETH IRAMT IREFF
 2 IR             30    80   100 GS000 IR007    10   .75
@N NITROGEN    NMDEP NMTHR NAMNT NCODE NAOFF
 2 NI            200    50    25 SI001 SI001
@N RESIDUES    RIPCN RTIME RIDEP
 2 RE            100    60    20
@N HARVEST     HFRST HLAST HPCNP HPCNR
 2 HA            157 95157    75     0

@N GENERAL     NYERS NREPS START SDATE RSEED SNAME.................... SMODEL
 3 GE              1     1     S 95044  2150 Fert Trial
@N OPTIONS     WATER NITRO SYMBI PHOSP POTAS DISES  CHEM  TILL   CO2
 3 OP              N     N     N     N     N     N     N     N     R
@N METHODS     WTHER INCON LIGHT EVAPO INFIL PHOTO HYDRO NSWIT MESOM MESEV MESOL
 3 ME              M     M     E     R     S     L     R     1     G     R     2
@N MANAGEMENT  PLANT IRRIG FERTI RESID HARVS
 3 MA              R     R     R     N     R
@N OUTPUTS     FNAME OVVEW SUMRY FROPT GROUT CAOUT WAOUT NIOUT MIOUT DIOUT VBOSE CHOUT OPOUT
 3 OU              N     Y     Y     1     Y     Y     Y     Y     N     N     Y     N     N

@  AUTOMATIC MANAGEMENT
@N PLANTING    PFRST PLAST PH2OL PH2OU PH2OD PSTMX PSTMN
 3 PL          99064 99064    40   100    30    45    40
@N IRRIGATION  IMDEP ITHRL ITHRU IROFF IMETH IRAMT IREFF
 3 IR             30    80   100 GS000 IR007    10     1
@N NITROGEN    NMDEP NMTHR NAMNT NCODE NAOFF
 3 NI            200    50    25 SI001 SI001
@N RESIDUES    RIPCN RTIME RIDEP
 3 RE            100    60    20
@N HARVEST     HFRST HLAST HPCNP HPCNR
 3 HA            157 95157    75     0



