*EXP.DETAILS: UFBR9201TM 1992 POTENTIAL YIELD, SUNNY, SUBIRRIGATED

*GENERAL
@PEOPLE
 B.L. McNeal and C.D. Stanley
@ADDRESS
University of Florida, Gainesville, Florida, USA
@SITE
Bradenton, Florida
@NOTES
 Initial experiment with tomatoes (cv. "Sunny") subirrigated, well-
 watered and well-fertilized. No obvious crop stresses. Measurements
 were taken in C.S Stanley and G.A. irrigation management trial.

*TREATMENTS                        -------------FACTOR LEVELS------------
@N R O C TNAME.................... CU FL SA IC MP MI MF MR MC MT ME MH SM
 1 1 0 0 SUNNY subirrigated         1  1  0  1  1  1  0  0  0  0  0  1  1

*CULTIVARS
@C CR INGENO CNAME
 1 TM TM0007 Sunny S-D 2010

*FIELDS
@L ID_FIELD WSTA....  FLSA  FLOB  FLDT  FLDD  FLDS  FLST SLTX  SLDP  ID_SOIL    FLNAME
 1 UFBR0001 UFBR9201     0     0 DR000     0     0  0000 SA     180  UFBR950001 -99
@L ...........XCRD ...........YCRD .....ELEV .............AREA .SLEN .FLWR .SLAS FLHST FHDUR
 1               0               0         0                 0     0     0     0   -99   -99

*INITIAL CONDITIONS
@C   PCR ICDAT  ICRT  ICND  ICRN  ICRE  ICWD ICRES ICREN ICREP ICRIP ICRID ICNAME
 1    PR 92050     1     0     1     1   -99     0     0     0   100    15 -99
@C  ICBL  SH2O  SNH4  SNO3
 1     7  .086    .2     3
 1    15  .086    .1    .1
 1    22  .086     0    .1
 1    30  .086     0     0
 1    45  .086     0     0
 1    90  .076     0     0
 1   120  .076     0     0
 1   150   .13     0     0
 1   180  .258     0     0

*PLANTING DETAILS
@P PDATE EDATE  PPOP  PPOE  PLME  PLDS  PLRS  PLRD  PLDP  PLWT  PAGE  PENV  PLPH  SPRL                        PLNAME
 1 92064   -99   1.1   1.1     T     R   152    90     1     3    25    25     1     0                        -99

*IRRIGATION AND WATER MANAGEMENT
@I  EFIR  IDEP  ITHR  IEPT  IOFF  IAME  IAMT IRNAME
 1   .75   -99   -99   -99   -99   -99   -99 -99
@I IDATE  IROP IRVAL
 1 92044 IR001    10
 1 92050 IR001    10
 1 92055 IR001     1
 1 92060 IR001    20
 1 92064 IR001     1
 1 92069 IR001    20
 1 92074 IR001    20
 1 92079 IR001    10
 1 92084 IR001    25
 1 92086 IR001    10
 1 92089 IR001    25
 1 92094 IR001     1
 1 92099 IR001    10
 1 92104 IR001    10
 1 92109 IR001    10
 1 92114 IR001    10
 1 92119 IR001    30
 1 92124 IR001    30
 1 92129 IR001    30
 1 92134 IR001    30
 1 92139 IR001    30
 1 92144 IR001    30
 1 92149 IR001    30
 1 92154 IR001    30
 1 92159 IR001    30
 1 92164 IR001    30

*HARVEST DETAILS
@H HDATE  HSTG  HCOM HSIZE   HPC  HBPC HNAME
 1 92164 GS000   -99   -99   -99     0 

*SIMULATION CONTROLS
@N GENERAL     NYERS NREPS START SDATE RSEED SNAME.................... SMODEL
 1 GE              1     1     S 92064  2150 POTENTIAL YIELD
@N OPTIONS     WATER NITRO SYMBI PHOSP POTAS DISES  CHEM  TILL   CO2
 1 OP              N     N     N     N     N     N     N     N     M
@N METHODS     WTHER INCON LIGHT EVAPO INFIL PHOTO HYDRO NSWIT MESOM MESEV MESOL
 1 ME              M     M     E     R     S     L     R     1     G     S     2
@N MANAGEMENT  PLANT IRRIG FERTI RESID HARVS
 1 MA              R     A     R     N     M
@N OUTPUTS     FNAME OVVEW SUMRY FROPT GROUT CAOUT WAOUT NIOUT MIOUT DIOUT VBOSE CHOUT OPOUT
 1 OU              N     Y     Y     1     Y     Y     Y     Y     N     N     Y     N     N

@  AUTOMATIC MANAGEMENT
@N PLANTING    PFRST PLAST PH2OL PH2OU PH2OD PSTMX PSTMN
 1 PL          09260 09260    40   100    30    45    40
@N IRRIGATION  IMDEP ITHRL ITHRU IROFF IMETH IRAMT IREFF
 1 IR             30    70   100 GS000 SI001    10     1
@N NITROGEN    NMDEP NMTHR NAMNT NCODE NAOFF
 1 NI            200    50    25 SI001 SI001
@N RESIDUES    RIPCN RTIME RIDEP
 1 RE            100    60    20
@N HARVEST     HFRST HLAST HPCNP HPCNR
 1 HA            164 92164    75     0



