*EXP.DETAILS: UFGA0701TM SPRING 2007,FLA 47,DRIP-IRR.

*GENERAL
@PEOPLE
Rybak, R., Boote K., Scholberg J.
@ADDRESS
-99
@SITE
Citra
@ PAREA  PRNO  PLEN  PLDR  PLSP  PLAY HAREA  HRNO  HLEN  HARM.........
    -99   -99   -99   -99   -99   -99   -99   -99   -99   -99

*TREATMENTS                        -------------FACTOR LEVELS------------
@N R O C TNAME.................... CU FL SA IC MP MI MF MR MC MT ME MH SM
 4 1 1 1 07-Ctrl"W on"              1  1  0  1  1  1  1  0  0  0  0  1  2
! 1 1 1 1 Potential                  1  1  0  1  1  1  0  0  0  0  0  1  1
! 2 1 1 1 07-Water stress            1  1  0  1  1  2  1  0  0  0  0  1  2
! 3 1 1 1 07-N Stress                1  1  0  1  1  1  2  0  0  0  0  1  3

*CULTIVARS
@C CR INGENO CNAME
 1 TM TM0001 Florida 47 

*FIELDS
@L ID_FIELD WSTA....  FLSA  FLOB  FLDT  FLDD  FLDS  FLST SLTX  SLDP  ID_SOIL    FLNAME
 1 UFIM0001 UFGA       -99     0 DR000     0     0 00000 SA     201  UFGA017000 -99
@L ...........XCRD ...........YCRD .....ELEV .............AREA .SLEN .FLWR .SLAS FLHST FHDUR
 1             -99             -99       -99               -99   -99   -99   -99   -99   -99

*SOIL ANALYSIS
@A SADAT  SMHB  SMPX  SMKE  SANAME
 1 07047   -99   -99   -99  -99
@A  SABL  SADM  SAOC  SANI SAPHW SAPHB  SAPX  SAKE  SASC
 1    15   -99   -99   -99   -99   -99   -99   -99   -99

*INITIAL CONDITIONS
@C   PCR ICDAT  ICRT  ICND  ICRN  ICRE  ICWD ICRES ICREN ICREP ICRIP ICRID ICNAME
 1    FA 07050     1     0     1     1   -99   -99   -99   -99   -99   -99 -99
@C  ICBL  SH2O  SNH4  SNO3
 1    10  .092    .2     1
 1    36  .059    .2     1
 1    79  .057    .1    .5
 1    99  .138    .1    .1
 1   112  .117     0     0
 1   117  .223     0     0
 1   155    .4     0     0
 1   203    .4     0     0
@C   PCR ICDAT  ICRT  ICND  ICRN  ICRE  ICWD ICRES ICREN ICREP ICRIP ICRID ICNAME
 2    FA 07050     1     0     1     1   -99   -99   -99   -99   -99   -99 -99
@C  ICBL  SH2O  SNH4  SNO3
 2    10  .086    .2     2
 2    36  .086    .2     2
 2    79  .086    .1     1
 2    99  .086    .1    .2
 2   112  .086     0     0
 2   117  .076     0     0
 2   155  .076     0     0
 2   203   .13     0     0

*PLANTING DETAILS
@P PDATE EDATE  PPOP  PPOE  PLME  PLDS  PLRS  PLRD  PLDP  PLWT  PAGE  PENV  PLPH  SPRL                        PLNAME
 1 07097 07097   1.2   1.2     T     R   183    90     1     3    29    25     1   -99                        -99
 2 07097 07097   1.2   1.2     T     R   183    90     1     3    28    25     1   -99                        28

*IRRIGATION AND WATER MANAGEMENT
@I  EFIR  IDEP  ITHR  IEPT  IOFF  IAME  IAMT IRNAME
 1     1    20    80    95   -99   -99   -99 -99
@I IDATE  IROP IRVAL
 1 07096 IR005   2.9
 1 07097 IR005   2.9
 1 07098 IR005    12
 1 07099 IR005   2.9
 1 07100 IR005   2.9
 1 07101 IR005   2.9
 1 07102 IR005   2.9
 1 07103 IR005   2.9
 1 07104 IR005   2.9
 1 07105 IR005   2.9
 1 07106 IR005   2.9
 1 07107 IR005   2.9
 1 07108 IR005   2.9
 1 07109 IR005   2.9
 1 07110 IR005   2.9
 1 07111 IR005   2.9
 1 07112 IR005   2.9
 1 07113 IR005   2.9
 1 07114 IR005   5.4
 1 07115 IR005   7.4
 1 07116 IR005  11.4
 1 07117 IR005   5.4
 1 07118 IR005  10.4
 1 07119 IR005    17
 1 07120 IR005   5.4
 1 07121 IR005  16.5
 1 07122 IR005   9.4
 1 07123 IR005   7.4
 1 07124 IR005    16
 1 07125 IR005   5.4
 1 07126 IR005   7.4
 1 07127 IR005   7.4
 1 07128 IR005   5.3
 1 07129 IR005   5.3
 1 07130 IR005   5.3
 1 07131 IR005   5.3
 1 07131 IR005   5.3
 1 07132 IR005   5.3
 1 07133 IR005     5
 1 07134 IR005     5
 1 07135 IR005     5
 1 07136 IR005     5
 1 07137 IR005     5
 1 07138 IR005     5
 1 07139 IR005     5
 1 07140 IR005     5
 1 07141 IR005     5
 1 07142 IR005     5
 1 07143 IR005     5
 1 07144 IR005     5
 1 07145 IR005     5
 1 07146 IR005     5
 1 07147 IR005     5
 1 07148 IR005     5
 1 07149 IR005     5
 1 07150 IR005     5
 1 07151 IR005     5
 1 07152 IR005     5
 1 07153 IR005     5
 1 07154 IR005   5.3
 1 07155 IR005   5.3
 1 07156 IR005   5.3
 1 07157 IR005   5.3
 1 07158 IR005   5.3
 1 07159 IR005   5.3
 1 07160 IR005   5.3
 1 07161 IR005   5.3
 1 07162 IR005   5.3
 1 07163 IR005   5.3
 1 07164 IR005   5.3
 1 07165 IR005   5.3
 1 07166 IR005   5.3
 1 07167 IR005   5.3
 1 07168 IR005   5.3
 1 07169 IR005   5.3
 1 07170 IR005   5.3
 1 07171 IR005   5.3
 1 07172 IR005   5.3
 1 07173 IR005   5.3
 1 07174 IR005   5.3
 1 07175 IR005   5.3
 1 07176 IR005   6.3
 1 07177 IR005   6.3
 1 07178 IR005   6.3
 1 07179 IR005   6.3
 1 07180 IR005   6.3
 1 07181 IR005   6.3
 1 07182 IR005   6.3
 1 07183 IR005   6.3
 1 07184 IR005   6.3
 1 07185 IR005   6.3
 1 07186 IR005   6.3
@I  EFIR  IDEP  ITHR  IEPT  IOFF  IAME  IAMT IRNAME
 2     1    20    80    95   -99   -99   -99 -99
@I IDATE  IROP IRVAL
 2 07096 IR005   2.9
 2 07097 IR005   2.9
 2 07098 IR005    12
 2 07100 IR005   2.9
 2 07101 IR005   2.9
 2 07102 IR005   2.9
 2 07103 IR005   2.9
 2 07104 IR005   2.9
 2 07105 IR005   2.9
 2 07106 IR005   2.9
 2 07107 IR005   2.9
 2 07108 IR005   2.9
 2 07109 IR005   2.9
 2 07110 IR005   2.9
 2 07111 IR005   2.9
 2 07111 IR005   2.9
 2 07112 IR005   2.9
 2 07113 IR005   2.9
 2 07114 IR005   5.4
 2 07115 IR005   7.4
 2 07116 IR005  11.4
 2 07117 IR005   5.4
 2 07118 IR005  10.4
 2 07119 IR005    17
 2 07121 IR005   5.4
 2 07122 IR005    16
 2 07123 IR005     9
 2 07124 IR005     7
 2 07125 IR005     7
 2 07126 IR005   5.3
 2 07127 IR005   5.3
 2 07128 IR005   5.3
 2 07129 IR005   3.3
 2 07130 IR005   3.3
 2 07131 IR005   5.3
 2 07132 IR005   5.3
 2 07133 IR005   3.3
 2 07134 IR005   3.3
 2 07135 IR005   3.3
 2 07136 IR005   3.3
 2 07137 IR005   2.9
 2 07138 IR005   1.9
 2 07139 IR005   1.9
 2 07140 IR005   1.9
 2 07141 IR005   1.9
 2 07142 IR005     0
 2 07143 IR005     0
 2 07144 IR005     0
 2 07145 IR005     0
 2 07146 IR005     0
 2 07147 IR005     0
 2 07148 IR005     0
 2 07149 IR005   1.3
 2 07150 IR005     0
 2 07151 IR005     0
 2 07152 IR005     0
 2 07153 IR005   3.3
 2 07154 IR005     0
 2 07155 IR005     0
 2 07156 IR005     0
 2 07157 IR005     0
 2 07158 IR005     0
 2 07159 IR005     0
 2 07160 IR005     0
 2 07161 IR005     0
 2 07162 IR005   5.3
 2 07163 IR005   5.3
 2 07164 IR005   5.3
 2 07165 IR005     0
 2 07166 IR005     0
 2 07167 IR005     0
 2 07168 IR005   5.3
 2 07169 IR005   5.3
 2 07170 IR005   5.3
 2 07171 IR005     0
 2 07172 IR005     0
 2 07173 IR005     0
 2 07174 IR005     0
 2 07175 IR005     0
 2 07176 IR005   5.3
 2 07177 IR005   5.3
 2 07178 IR005   5.3
 2 07179 IR005     0
 2 07180 IR005     0
 2 07181 IR005     0
 2 07182 IR005     0
 2 07183 IR005     0
 2 07184 IR005     0
 2 07185 IR005     0
 2 07186 IR005     0
 2 07187 IR005     0

*FERTILIZERS (INORGANIC)
@F FDATE  FMCD  FACD  FDEP  FAMN  FAMP  FAMK  FAMC  FAMO  FOCD FERNAME
 1 07100 FE011 AP005    10     9    25    12   -99     1     0 -99
 1 07103 FE011 AP005     1     9     0     0   -99     0   -99 -99
 1 07107 FE011 AP005     1    18     0    12   -99     1   -99 -99
 1 07114 FE011 AP005     1    24     0    16   -99     1   -99 -99
 1 07121 FE011 AP005     1    24     0    16   -99     1   -99 -99
 1 07128 FE011 AP005     1    39     0    24   -99     1   -99 -99
 1 07135 FE011 AP005     1    39     0    24   -99     1   -99 -99
 1 07137 FE011 AP005     1    39     0    24   -99     1   -99 -99
 1 07142 FE011 AP005     1    29     0    24   -99     1   -99 -99
 1 07149 FE011 AP005     1    29     0    24   -99     1   -99 -99
 1 07156 FE011 AP005     1    29     0    24   -99     1   -99 -99
 1 07163 FE011 AP005     1    29     0    24   -99     1   -99 -99
 1 07170 FE011 AP005     1    29     0    26   -99     1   -99 -99
 1 07177 FE011 AP005     1    24     0    12   -99     1   -99 -99
 1 07184 FE011 AP005     1    24     0    12   -99     1   -99 -99
 2 07097 FE011 AP005    10     9    25    12   -99     1     0 -99
 2 07103 FE011 AP005     1     9     0     0   -99     0   -99 -99
 2 07107 FE011 AP005     1    18     0    12   -99     1   -99 -99
 2 07114 FE011 AP005     1    24     0    16   -99     1   -99 -99
 2 07121 FE011 AP005     1     0     0    16   -99     1   -99 -99
 2 07128 FE011 AP005     1     0     0    24   -99     1   -99 -99
 2 07135 FE011 AP005     1     0     0    24   -99     1   -99 -99
 2 07142 FE011 AP005     1     0     0    24   -99     1   -99 -99
 2 07149 FE011 AP005     1     0     0    24   -99     1   -99 -99
 2 07156 FE011 AP005     1     0     0    24   -99     1   -99 -99
 2 07163 FE011 AP005     1     0     0    24   -99     1   -99 -99
 2 07170 FE011 AP005     1     0     0    26   -99     1   -99 -99
 2 07177 FE011 AP005     1     0     0    12   -99     1   -99 -99

*RESIDUES AND ORGANIC FERTILIZER
@R RDATE  RCOD  RAMT  RESN  RESP  RESK  RINP  RDEP  RMET RENAME
 1 07048 RE004     0     6     2   1.5   100    10   -99 -99

*CHEMICAL APPLICATIONS
@C CDATE CHCOD CHAMT  CHME CHDEP   CHT..CHNAME
 1 07047   -99   -99   -99   -99   -99  -99

*TILLAGE AND ROTATIONS
@T TDATE TIMPL  TDEP TNAME
 1 07047   -99   -99 -99

*ENVIRONMENT MODIFICATIONS
@E ODATE EDAY  ERAD  EMAX  EMIN  ERAIN ECO2  EDEW  EWIND ENVNAME  
 1 07047 A   0 A   0 A   0 A   0 A 0.0 A   0 A   0 A   0 

*HARVEST DETAILS
@H HDATE  HSTG  HCOM HSIZE   HPC  HBPC HNAME
 1 07186 GS000   -99   -99   -99   -99 

*SIMULATION CONTROLS
@N GENERAL     NYERS NREPS START SDATE RSEED SNAME.................... SMODEL
 1 GE              1     1     S 07046  2150 POTENTIAL YIELD
@N OPTIONS     WATER NITRO SYMBI PHOSP POTAS DISES  CHEM  TILL   CO2
 1 OP              N     N     N     N     N     N     N     N     M
@N METHODS     WTHER INCON LIGHT EVAPO INFIL PHOTO HYDRO NSWIT MESOM MESEV MESOL
 1 ME              M     M     E     R     S     L     R     1     G     S     2
@N MANAGEMENT  PLANT IRRIG FERTI RESID HARVS
 1 MA              R     A     A     N     R
@N OUTPUTS     FNAME OVVEW SUMRY FROPT GROUT CAOUT WAOUT NIOUT MIOUT DIOUT VBOSE CHOUT OPOUT
 1 OU              N     Y     Y     1     Y     Y     Y     Y     N     N     Y     N     N

@  AUTOMATIC MANAGEMENT
@N PLANTING    PFRST PLAST PH2OL PH2OU PH2OD PSTMX PSTMN
 1 PL          95051 95051    40   100    30    45    40
@N IRRIGATION  IMDEP ITHRL ITHRU IROFF IMETH IRAMT IREFF
 1 IR             30    80   100 GS000 SI005     5     1
@N NITROGEN    NMDEP NMTHR NAMNT NCODE NAOFF
 1 NI            200    50    25 SI001 SI001
@N RESIDUES    RIPCN RTIME RIDEP
 1 RE            100    60    20
@N HARVEST     HFRST HLAST HPCNP HPCNR
 1 HA            169 95169    75     0

@N GENERAL     NYERS NREPS START SDATE RSEED SNAME.................... SMODEL
 2 GE              1     1     S 07046  2150 Water stress, WB ON
@N OPTIONS     WATER NITRO SYMBI PHOSP POTAS DISES  CHEM  TILL   CO2
 2 OP              Y     N     N     N     N     N     N     N     M
@N METHODS     WTHER INCON LIGHT EVAPO INFIL PHOTO HYDRO NSWIT MESOM MESEV MESOL
 2 ME              M     M     E     R     S     L     R     1     G     S     2
@N MANAGEMENT  PLANT IRRIG FERTI RESID HARVS
 2 MA              R     R     R     N     R
@N OUTPUTS     FNAME OVVEW SUMRY FROPT GROUT CAOUT WAOUT NIOUT MIOUT DIOUT VBOSE CHOUT OPOUT
 2 OU              N     Y     Y     1     Y     Y     Y     Y     N     N     Y     N     N

@  AUTOMATIC MANAGEMENT
@N PLANTING    PFRST PLAST PH2OL PH2OU PH2OD PSTMX PSTMN
 2 PL          95051 95051    40   100    30    45    40
@N IRRIGATION  IMDEP ITHRL ITHRU IROFF IMETH IRAMT IREFF
 2 IR             30    80   100 GS000 SI005     5     1
@N NITROGEN    NMDEP NMTHR NAMNT NCODE NAOFF
 2 NI            200    50    25 SI001 SI001
@N RESIDUES    RIPCN RTIME RIDEP
 2 RE            100    60    20
@N HARVEST     HFRST HLAST HPCNP HPCNR
 2 HA            169 95169    75     0

@N GENERAL     NYERS NREPS START SDATE RSEED SNAME.................... SMODEL
 3 GE              1     1     S 07046  2150 Nitrogen stress
@N OPTIONS     WATER NITRO SYMBI PHOSP POTAS DISES  CHEM  TILL   CO2
 3 OP              Y     Y     N     N     N     N     N     N     M
@N METHODS     WTHER INCON LIGHT EVAPO INFIL PHOTO HYDRO NSWIT MESOM MESEV MESOL
 3 ME              M     M     E     R     S     L     R     1     G     S     2
@N MANAGEMENT  PLANT IRRIG FERTI RESID HARVS
 3 MA              R     R     R     N     R
@N OUTPUTS     FNAME OVVEW SUMRY FROPT GROUT CAOUT WAOUT NIOUT MIOUT DIOUT VBOSE CHOUT OPOUT
 3 OU              N     Y     Y     1     Y     Y     Y     Y     N     N     Y     N     N

@  AUTOMATIC MANAGEMENT
@N PLANTING    PFRST PLAST PH2OL PH2OU PH2OD PSTMX PSTMN
 3 PL          95051 95051    40   100    30    45    40
@N IRRIGATION  IMDEP ITHRL ITHRU IROFF IMETH IRAMT IREFF
 3 IR             30    80   100 GS000 SI005     5     1
@N NITROGEN    NMDEP NMTHR NAMNT NCODE NAOFF
 3 NI            200    50    25 SI001 SI001
@N RESIDUES    RIPCN RTIME RIDEP
 3 RE            100    60    20
@N HARVEST     HFRST HLAST HPCNP HPCNR
 3 HA            169 95169    75     0



