*EXP.DETAILS: UFGA0602TM SPRING 2006,FLA 47,DRIP-IRR.

*GENERAL
@PEOPLE
Rybak, R., Boote K., Scholberg J.
@ADDRESS
-99
@SITE
Citra

*TREATMENTS                        -------------FACTOR LEVELS------------
@N R O C TNAME.................... CU FL SA IC MP MI MF MR MC MT ME MH SM
 4 1 1 1 06-Ctrl WB "on"            1  1  0  1  1  1  1  0  0  0  0  1  2
! 1 1 1 1 06-Potential               1  1  0  1  1  0  0  0  0  0  0  1  1
! 2 1 1 1 06-Water stress            1  1  0  1  1  2  1  0  0  0  0  1  2
! 3 1 1 1 06-N Stress                1  1  0  1  1  1  2  0  0  0  0  1  3

*CULTIVARS
@C CR INGENO CNAME
 1 TM TM0001 Florida 47

*FIELDS
@L ID_FIELD WSTA....  FLSA  FLOB  FLDT  FLDD  FLDS  FLST SLTX  SLDP  ID_SOIL    FLNAME
 1 UFIM0001 UFGA       -99     0 DR000     0     0 00000 SA     201  UFGA010700 -99
@L ...........XCRD ...........YCRD .....ELEV .............AREA .SLEN .FLWR .SLAS FLHST FHDUR
 1             -99             -99       -99               -99   -99   -99   -99   -99   -99

*SOIL ANALYSIS
@A SADAT  SMHB  SMPX  SMKE  SANAME
 1 06047   -99   -99   -99  -99
@A  SABL  SADM  SAOC  SANI SAPHW SAPHB  SAPX  SAKE  SASC
 1    15   -99   -99   -99   -99   -99   -99   -99   -99

*INITIAL CONDITIONS
@C   PCR ICDAT  ICRT  ICND  ICRN  ICRE  ICWD ICRES ICREN ICREP ICRIP ICRID ICNAME
 1    FA 06050     1     0     1     1   -99   -99   -99   -99   -99   -99 -99
@C  ICBL  SH2O  SNH4  SNO3
 1    10  .092    .2     1
 1    36  .059    .2     1
 1    79  .057    .1    .5
 1    99  .138    .1    .1
 1   112  .117     0     0
 1   117  .223     0     0
 1   155    .4     0     0
 1   203    .4     0     0
@C   PCR ICDAT  ICRT  ICND  ICRN  ICRE  ICWD ICRES ICREN ICREP ICRIP ICRID ICNAME
 2    FA 06050     1     0     1     1   -99   -99   -99   -99   -99   -99 -99
@C  ICBL  SH2O  SNH4  SNO3
 2    10  .086    .2     2
 2    36  .086    .2     2
 2    79  .086    .1     1
 2    99  .086    .1    .2
 2   112  .086     0     0
 2   117  .076     0     0
 2   155  .076     0     0
 2   203   .13     0     0

*PLANTING DETAILS
@P PDATE EDATE  PPOP  PPOE  PLME  PLDS  PLRS  PLRD  PLDP  PLWT  PAGE  PENV  PLPH  SPRL                        PLNAME
 1 06095 06095   1.2   1.2     T     R   183    90     1     3    28    25     1   -99                        -99
 2 06095 06095   1.2   1.2     T     R   183    90     1     3    27    25     1   -99                        27

*IRRIGATION AND WATER MANAGEMENT
@I  EFIR  IDEP  ITHR  IEPT  IOFF  IAME  IAMT IRNAME
 1     1    20    80    95   -99   -99   -99 -99
@I IDATE  IROP IRVAL
 1 06093 IR005   2.9
 1 06094 IR005   2.9
 1 06095 IR005    12
 1 06096 IR005   2.9
 1 06097 IR005   2.9
 1 06098 IR005    10
 1 06099 IR005   2.9
 1 06100 IR005   2.9
 1 06101 IR005   2.9
 1 06102 IR005   2.9
 1 06103 IR005   2.9
 1 06104 IR005   2.9
 1 06105 IR005   2.9
 1 06106 IR005   2.9
 1 06107 IR005   2.9
 1 06108 IR005   2.9
 1 06109 IR005   2.9
 1 06110 IR005   2.9
 1 06111 IR005   2.9
 1 06112 IR005   2.9
 1 06113 IR005   2.9
 1 06114 IR005   5.4
 1 06115 IR005    14
 1 06116 IR005    10
 1 06117 IR005    17
 1 06118 IR005   5.4
 1 06119 IR005    16
 1 06120 IR005   9.4
 1 06121 IR005   7.5
 1 06122 IR005    16
 1 06123 IR005   7.5
 1 06124 IR005   5.4
 1 06125 IR005   5.4
 1 06126 IR005   7.4
 1 06127 IR005   7.4
 1 06128 IR005   5.5
 1 06129 IR005   5.5
 1 06130 IR005   5.5
 1 06131 IR005   5.5
 1 06132 IR005   5.5
 1 06133 IR005   5.5
 1 06134 IR005     5
 1 06135 IR005     5
 1 06136 IR005     5
 1 06137 IR005     5
 1 06138 IR005     5
 1 06139 IR005     5
 1 06140 IR005     5
 1 06141 IR005     5
 1 06142 IR005     5
 1 06143 IR005     5
 1 06144 IR005     5
 1 06145 IR005     5
 1 06146 IR005     5
 1 06147 IR005     5
 1 06148 IR005     5
 1 06149 IR005     5
 1 06150 IR005     5
 1 06151 IR005     5
 1 06152 IR005     5
 1 06152 IR005     5
 1 06153 IR005     5
 1 06154 IR005   5.3
 1 06155 IR005   5.3
 1 06156 IR005   5.3
 1 06157 IR005   5.3
 1 06158 IR005   5.3
 1 06159 IR005   5.3
 1 06160 IR005   5.3
 1 06161 IR005   5.3
 1 06162 IR005   5.3
 1 06163 IR005   5.3
 1 06164 IR005   5.3
 1 06165 IR005   5.3
 1 06166 IR005   5.3
 1 06167 IR005   5.3
 1 06168 IR005   5.3
 1 06169 IR005   5.3
 1 06170 IR005   5.3
 1 06171 IR005   5.3
 1 06172 IR005   5.3
 1 06173 IR005   5.3
 1 06174 IR005   5.3
 1 06175 IR005   5.3
 1 06176 IR005   6.3
 1 06177 IR005   6.3
 1 06178 IR005   6.3
 1 06179 IR005   6.3
 1 06180 IR005   6.3
 1 06181 IR005   6.3
 1 06182 IR005   6.3
 1 06183 IR005   6.3
@I  EFIR  IDEP  ITHR  IEPT  IOFF  IAME  IAMT IRNAME
 2     1    20    80    95   -99   -99   -99 -99
@I IDATE  IROP IRVAL
 2 06093 IR005   2.9
 2 06094 IR005   2.9
 2 06095 IR005    12
 2 06096 IR005   2.9
 2 06097 IR005   2.9
 2 06098 IR005   2.9
 2 06099 IR005   2.9
 2 06100 IR005   2.9
 2 06101 IR005   2.9
 2 06102 IR005   2.9
 2 06103 IR005   2.9
 2 06104 IR005   2.9
 2 06105 IR005   2.9
 2 06106 IR005   2.9
 2 06107 IR005   2.9
 2 06108 IR005   2.9
 2 06109 IR005   2.9
 2 06110 IR005   2.9
 2 06111 IR005   2.9
 2 06112 IR005   2.9
 2 06113 IR005   5.4
 2 06114 IR005   7.4
 2 06115 IR005  11.4
 2 06116 IR005   5.4
 2 06117 IR005   5.4
 2 06118 IR005     4
 2 06119 IR005   5.4
 2 06120 IR005     4
 2 06121 IR005     4
 2 06122 IR005     4
 2 06123 IR005     4
 2 06124 IR005     4
 2 06125 IR005   5.3
 2 06126 IR005   5.3
 2 06127 IR005     6
 2 06128 IR005     6
 2 06129 IR005     5
 2 06130 IR005     5
 2 06131 IR005     5
 2 06132 IR005     5
 2 06133 IR005     5
 2 06134 IR005     5
 2 06135 IR005     5
 2 06136 IR005   3.3
 2 06137 IR005   3.3
 2 06138 IR005   3.3
 2 06139 IR005     2
 2 06140 IR005     2
 2 06141 IR005     2
 2 06142 IR005   1.3
 2 06143 IR005   1.3
 2 06144 IR005     0
 2 06145 IR005     0
 2 06146 IR005     0
 2 06147 IR005     0
 2 06148 IR005   3.3
 2 06149 IR005     0
 2 06150 IR005     0
 2 06151 IR005     0
 2 06152 IR005     0
 2 06152 IR005     0
 2 06153 IR005     0
 2 06154 IR005     0
 2 06155 IR005     0
 2 06156 IR005   3.3
 2 06157 IR005     0
 2 06158 IR005     0
 2 06159 IR005     0
 2 06160 IR005     0
 2 06161 IR005     0
 2 06162 IR005     0
 2 06163 IR005   3.3
 2 06164 IR005   3.3
 2 06165 IR005     0
 2 06166 IR005     0
 2 06167 IR005     0
 2 06168 IR005     0
 2 06169 IR005     0
 2 06170 IR005     0
 2 06171 IR005   3.3
 2 06172 IR005   3.3
 2 06173 IR005     0
 2 06174 IR005     0
 2 06175 IR005     0
 2 06176 IR005     0
 2 06177 IR005     0
 2 06178 IR005     0
 2 06179 IR005     0
 2 06180 IR005   3.3
 2 06181 IR005     0
 2 06182 IR005     0
 2 06183 IR005     0

*FERTILIZERS (INORGANIC)
@F FDATE  FMCD  FACD  FDEP  FAMN  FAMP  FAMK  FAMC  FAMO  FOCD FERNAME
 1 06097 FE011 AP005    10     9    25    12   -99     1     0 -99
 1 06103 FE011 AP005     1     9     0     0   -99     0   -99 -99
 1 06107 FE011 AP005     1    18     0    12   -99     1   -99 -99
 1 06114 FE011 AP005     1    24     0    16   -99     1   -99 -99
 1 06121 FE011 AP005     1    24     0    16   -99     1   -99 -99
 1 06128 FE011 AP005     1    29     0    24   -99     1   -99 -99
 1 06135 FE011 AP005     1    29     0    24   -99     1   -99 -99
 1 06142 FE011 AP005     1    29     0    24   -99     1   -99 -99
 1 06149 FE011 AP005     1    29     0    24   -99     1   -99 -99
 1 06156 FE011 AP005     1    29     0    24   -99     1   -99 -99
 1 06163 FE011 AP005     1    29     0    24   -99     1   -99 -99
 1 06170 FE011 AP005     1    29     0    26   -99     1   -99 -99
 1 06177 FE011 AP005     1    24     0    12   -99     1   -99 -99
 2 06097 FE011 AP005    10     7    25    12   -99     1     0 -99
 2 06103 FE011 AP005     1     7     0     0   -99     0   -99 -99
 2 06107 FE011 AP005     1     9     0    12   -99     1   -99 -99
 2 06114 FE011 AP005     1     9     0    16   -99     1   -99 -99
 2 06121 FE011 AP005     1     9     0    16   -99     1   -99 -99
 2 06128 FE011 AP005     1     0     0    24   -99     1   -99 -99
 2 06135 FE011 AP005     1     0     0    24   -99     1   -99 -99
 2 06142 FE011 AP005     1     0     0    24   -99     1   -99 -99
 2 06149 FE011 AP005     1     0     0    24   -99     1   -99 -99
 2 06156 FE011 AP005     1     0     0    24   -99     1   -99 -99
 2 06163 FE011 AP005     1     0     0    24   -99     1   -99 -99
 2 06170 FE011 AP005     1     0     0    26   -99     1   -99 -99
 2 06177 FE011 AP005     1     0     0    12   -99     1   -99 -99

*RESIDUES AND ORGANIC FERTILIZER
@R RDATE  RCOD  RAMT  RESN  RESP  RESK  RINP  RDEP  RMET RENAME
 1 06048 RE004     0     6     2   1.5   100    10   -99 -99

*CHEMICAL APPLICATIONS
@C CDATE CHCOD CHAMT  CHME CHDEP   CHT..CHNAME
 1 06047   -99   -99   -99   -99   -99  -99

*TILLAGE AND ROTATIONS
@T TDATE TIMPL  TDEP TNAME
 1 06047   -99   -99 -99

*ENVIRONMENT MODIFICATIONS
@E ODATE EDAY  ERAD  EMAX  EMIN  ERAIN ECO2  EDEW  EWIND ENVNAME  
 1 06152 A   0 A   0 A   0 A   0 R 0.0 A   0 A   0 A   0 stop rainfall, plastic mulch

*HARVEST DETAILS
@H HDATE  HSTG  HCOM HSIZE   HPC  HBPC HNAME
 1 06183 GS000   -99   -99   -99   -99 Control
 2 06179 GS000   -99   -99   -99   -99 water
 2 06183 GS000   -99   -99   -99   -99 water
 2 06205 GS000   -99   -99   -99   -99 water
 3 06175 GS000   -99   -99   -99   -99 Nitrogen Stress
 3 06183 GS000   -99   -99   -99   -99 Nitrogen Stress
 3 06205 GS000   -99   -99   -99   -99 Nitrogen Stress

*SIMULATION CONTROLS
@N GENERAL     NYERS NREPS START SDATE RSEED SNAME.................... SMODEL
 1 GE              1     1     S 06089  2150 POTENTIAL YIELD
@N OPTIONS     WATER NITRO SYMBI PHOSP POTAS DISES  CHEM  TILL   CO2
 1 OP              N     N     N     N     N     N     N     N     M
@N METHODS     WTHER INCON LIGHT EVAPO INFIL PHOTO HYDRO NSWIT MESOM MESEV MESOL
 1 ME              M     M     E     R     S     L     R     1     G     S     2
@N MANAGEMENT  PLANT IRRIG FERTI RESID HARVS
 1 MA              R     A     A     N     R
@N OUTPUTS     FNAME OVVEW SUMRY FROPT GROUT CAOUT WAOUT NIOUT MIOUT DIOUT VBOSE CHOUT OPOUT
 1 OU              N     Y     Y     1     Y     Y     Y     Y     N     N     Y     N     N

@  AUTOMATIC MANAGEMENT
@N PLANTING    PFRST PLAST PH2OL PH2OU PH2OD PSTMX PSTMN
 1 PL          95051 95051    40   100    30    45    40
@N IRRIGATION  IMDEP ITHRL ITHRU IROFF IMETH IRAMT IREFF
 1 IR             30    80   100 GS000 SI005     5     1
@N NITROGEN    NMDEP NMTHR NAMNT NCODE NAOFF
 1 NI            200    50    25 SI001 SI001
@N RESIDUES    RIPCN RTIME RIDEP
 1 RE            100    60    20
@N HARVEST     HFRST HLAST HPCNP HPCNR
 1 HA            169 95169    75     0

@N GENERAL     NYERS NREPS START SDATE RSEED SNAME.................... SMODEL
 2 GE              1     1     S 06089  2150 Water stress, WB ON
@N OPTIONS     WATER NITRO SYMBI PHOSP POTAS DISES  CHEM  TILL   CO2
 2 OP              Y     N     N     N     N     N     N     N     M
@N METHODS     WTHER INCON LIGHT EVAPO INFIL PHOTO HYDRO NSWIT MESOM MESEV MESOL
 2 ME              M     M     E     R     S     L     R     1     G     S     2
@N MANAGEMENT  PLANT IRRIG FERTI RESID HARVS
 2 MA              R     R     A     N     R
@N OUTPUTS     FNAME OVVEW SUMRY FROPT GROUT CAOUT WAOUT NIOUT MIOUT DIOUT VBOSE CHOUT OPOUT
 2 OU              N     Y     Y     1     Y     N     Y     Y     N     N     Y     N     N

@  AUTOMATIC MANAGEMENT
@N PLANTING    PFRST PLAST PH2OL PH2OU PH2OD PSTMX PSTMN
 2 PL          95051 95051    40   100    30    45    40
@N IRRIGATION  IMDEP ITHRL ITHRU IROFF IMETH IRAMT IREFF
 2 IR             30    80   100 GS000 SI005     5     1
@N NITROGEN    NMDEP NMTHR NAMNT NCODE NAOFF
 2 NI            200    50    25 SI001 SI001
@N RESIDUES    RIPCN RTIME RIDEP
 2 RE            100    60    20
@N HARVEST     HFRST HLAST HPCNP HPCNR
 2 HA            169 95169    75     0

@N GENERAL     NYERS NREPS START SDATE RSEED SNAME.................... SMODEL
 3 GE              1     1     S 06089  2150 Nitrogen stress
@N OPTIONS     WATER NITRO SYMBI PHOSP POTAS DISES  CHEM  TILL   CO2
 3 OP              Y     Y     N     N     N     N     N     N     M
@N METHODS     WTHER INCON LIGHT EVAPO INFIL PHOTO HYDRO NSWIT MESOM MESEV MESOL
 3 ME              M     M     E     R     S     L     R     1     G     S     2
@N MANAGEMENT  PLANT IRRIG FERTI RESID HARVS
 3 MA              R     R     R     N     R
@N OUTPUTS     FNAME OVVEW SUMRY FROPT GROUT CAOUT WAOUT NIOUT MIOUT DIOUT VBOSE CHOUT OPOUT
 3 OU              N     Y     Y     1     Y     Y     Y     Y     N     N     Y     N     N

@  AUTOMATIC MANAGEMENT
@N PLANTING    PFRST PLAST PH2OL PH2OU PH2OD PSTMX PSTMN
 3 PL          95051 95051    40   100    30    45    40
@N IRRIGATION  IMDEP ITHRL ITHRU IROFF IMETH IRAMT IREFF
 3 IR             30    80   100 GS000 SI005     5     1
@N NITROGEN    NMDEP NMTHR NAMNT NCODE NAOFF
 3 NI            200    50    25 SI001 SI001
@N RESIDUES    RIPCN RTIME RIDEP
 3 RE            100    60    20
@N HARVEST     HFRST HLAST HPCNP HPCNR
 3 HA            169 95169    75     0



