*EXP.DETAILS: UFGA9602TM SPRING 1996,AGRISET,IRR.CUT,DRIP-IRR

*GENERAL
@PEOPLE
Johan Scholberg, Ph.D. dissertation
@ADDRESS
Irrigation cut-off (3 different timings or levels), 4th is irr control
@SITE
Hort Unit, not IREP
! Only 4 treatments.  Model would not mimic drip irrigation or even correct 
! soil evaporation (none for mulch), so many tries at this by Scholberg
! finally just assumed no N stresses and no water limitations.
! so only the control, treatment 4 is the fair comparison to make.
! treatments 1, 2, and 3 await proper plastic mulch bed.
! treatments 1, 2, and 3 are really irrigation cut-off and soil is NOT
! typical IREP Millhopper soil, but grown at Hort Unit north Gainesville.
! Model also mimic high N leaching when in fact there was none because of mulch
! treatments 1, 2, and 3 are really irrigation cut-off and soil is NOT
! typical IREP Millhopper soil, but grown at Hort Unit north Gainesville.
! DATA is same for early points.  Not as much information as you would think.

*TREATMENTS                        -------------FACTOR LEVELS------------
@N R O C TNAME.................... CU FL SA IC MP MI MF MR MC MT ME MH SM
! 1 1 1 1 96-CB1, N-B "off" AI       1  3  0  1  1  1  1  0  0  0  0  1  1
! 2 1 1 1 96-CB2, N-B "off" AI       1  3  0  1  1  2  2  0  0  0  0  1  1
! 3 1 1 1 96-CB3, N-B "off" AI       1  3  0  1  1  3  3  0  0  0  0  1  1
 4 1 1 1 96-CONT N-B "off" AI       1  3  0  1  1  4  4  0  0  0  0  1  1

*CULTIVARS
@C CR INGENO CNAME
 1 TM TM0005 Agriset 761

*FIELDS
@L ID_FIELD WSTA....  FLSA  FLOB  FLDT  FLDD  FLDS  FLST SLTX  SLDP  ID_SOIL    FLNAME
 2 UFGA0002 UFGA9601   -99     0 DR000     0     0 00000 SA     201  UFGA950002 -99
 3 UFGA0003 UFGA9601   -99     0 DR000     0     0 00000 SA     201  UFGA950003 -99
 4 UFGA0004 UFGA9601   -99     0 DR000     0     0 00000 SA     201  UFGA950004 -99
 5 UFGA0005 UFGA9601   -99     0 DR000     0     0 00000 SA     201  UFGA950005 -99
@L ...........XCRD ...........YCRD .....ELEV .............AREA .SLEN .FLWR .SLAS FLHST FHDUR
 2             -99             -99       -99               -99   -99   -99   -99   -99   -99
 3             -99             -99       -99               -99   -99   -99   -99   -99   -99
 4             -99             -99       -99               -99   -99   -99   -99   -99   -99
 5             -99             -99       -99               -99   -99   -99   -99   -99   -99

*INITIAL CONDITIONS
@C   PCR ICDAT  ICRT  ICND  ICRN  ICRE  ICWD ICRES ICREN ICREP ICRIP ICRID ICNAME
 1    FA 96065     1     0     1     1   -99   -99   -99   -99   -99   -99 -99
@C  ICBL  SH2O  SNH4  SNO3
 1    15  .092    .5     1
 1    25  .104    .5     1
 1    30    .2    .5     1
 1    89   .35     0     0
 1   147    .4     0     0
 1   157    .4     0     0
 1   175    .4     0     0
 1   203  .448     0     0
@C   PCR ICDAT  ICRT  ICND  ICRN  ICRE  ICWD ICRES ICREN ICREP ICRIP ICRID ICNAME
 2    FA 95065     1     0     1     1   -99   -99   -99   -99   -99   -99 -99
@C  ICBL  SH2O  SNH4  SNO3
 2    15  .092    .5     2
 2    25  .104    .5     2
 2    30    .2    .5     2
 2    89   .35     0     0
 2   147    .4     0     0
 2   157    .4     0     0
 2   175    .4     0     0
 2   203    .4     0     0

*PLANTING DETAILS
@P PDATE EDATE  PPOP  PPOE  PLME  PLDS  PLRS  PLRD  PLDP  PLWT  PAGE  PENV  PLPH  SPRL                        PLNAME
 1 96088 96089   1.2   1.2     T     R   183    90     1     3    28    25     1   -99                        -99

*IRRIGATION AND WATER MANAGEMENT
@I  EFIR  IDEP  ITHR  IEPT  IOFF  IAME  IAMT IRNAME
 1     1    20    80    95   -99   -99   -99 -99
@I IDATE  IROP IRVAL
 1 96088 IR005   2.1
 1 96089 IR005   2.1
 1 96090 IR005   2.1
 1 96091 IR005   2.1
 1 96092 IR005   2.1
 1 96093 IR005   2.1
 1 96094 IR005   2.1
 1 96095 IR005   2.1
 1 96096 IR005   2.1
 1 96097 IR005   2.1
 1 96098 IR005   2.1
 1 96099 IR005   2.1
 1 96100 IR005   2.1
 1 96101 IR005   2.1
 1 96102 IR005     8
@I  EFIR  IDEP  ITHR  IEPT  IOFF  IAME  IAMT IRNAME
 2     1   -99   -99   -99   -99   -99   -99 -99
@I IDATE  IROP IRVAL
 2 96088 IR005   2.1
 2 96089 IR005   2.1
 2 96090 IR005   2.1
 2 96091 IR005   2.1
 2 96092 IR005   2.1
 2 96093 IR005   2.1
 2 96094 IR005   2.1
 2 96095 IR005   2.1
 2 96096 IR005   2.1
 2 96097 IR005   2.1
 2 96098 IR005   2.1
 2 96099 IR005   2.1
 2 96100 IR005   2.1
 2 96101 IR005   2.1
 2 96102 IR005   2.1
 2 96104 IR005   2.1
 2 96105 IR005   2.1
 2 96106 IR005   2.1
 2 96107 IR005   2.1
 2 96108 IR005   2.1
 2 96109 IR005   2.1
 2 96110 IR005   2.1
 2 96111 IR005   2.1
 2 96112 IR005   2.1
 2 96113 IR005   2.1
 2 96114 IR005   2.1
 2 96115 IR005   2.1
 2 96116 IR005   2.1
 2 96117 IR005   2.1
 2 96118 IR005   2.1
 2 96119 IR005   2.1
 2 96120 IR005   2.1
 2 96121 IR005   2.1
 2 96122 IR005   2.1
 2 96123 IR005   3.1
@I  EFIR  IDEP  ITHR  IEPT  IOFF  IAME  IAMT IRNAME
 3     1   -99   -99   -99   -99   -99   -99 -99
@I IDATE  IROP IRVAL
 3 96088 IR005   2.1
 3 96089 IR005   2.1
 3 96090 IR005   2.1
 3 96091 IR005   2.1
 3 96092 IR005   2.1
 3 96093 IR005   2.1
 3 96094 IR005   2.1
 3 96095 IR005   2.1
 3 96096 IR005   2.1
 3 96097 IR005   2.1
 3 96098 IR005   2.1
 3 96099 IR005   2.1
 3 96100 IR005   2.1
 3 96101 IR005   2.1
 3 96102 IR005   2.1
 3 96104 IR005   2.1
 3 96105 IR005   2.1
 3 96106 IR005   2.1
 3 96107 IR005   2.1
 3 96108 IR005   2.1
 3 96109 IR005   2.1
 3 96110 IR005   2.1
 3 96111 IR005   2.1
 3 96112 IR005   2.1
 3 96113 IR005   2.1
 3 96114 IR005   2.1
 3 96115 IR005   2.1
 3 96116 IR005   2.1
 3 96117 IR005   2.1
 3 96118 IR005   2.1
 3 96119 IR005   2.1
 3 96120 IR005   2.1
 3 96121 IR005   2.1
 3 96122 IR005   2.1
 3 96123 IR005   2.1
 3 96124 IR005   2.1
 3 96125 IR005   2.1
 3 96126 IR005   2.1
 3 96127 IR005   2.1
 3 96128 IR005   2.1
 3 96129 IR005   2.1
 3 96130 IR005   2.1
 3 96131 IR005   2.1
 3 96132 IR005   2.1
 3 96133 IR005   2.1
 3 96134 IR005   2.1
 3 96135 IR005   2.1
 3 96136 IR005   2.1
 3 96137 IR005   2.1
 3 96138 IR005   2.1
 3 96139 IR005   2.1
 3 96140 IR005   2.1
 3 96141 IR005   2.1
 3 96142 IR005   2.1
 3 96143 IR005   2.1
 3 96144 IR005   3.1
@I  EFIR  IDEP  ITHR  IEPT  IOFF  IAME  IAMT IRNAME
 4     1   -99   -99   -99   -99   -99   -99 -99
@I IDATE  IROP IRVAL
 4 96088 IR005   2.1
 4 96089 IR005   2.1
 4 96090 IR005   2.1
 4 96091 IR005   2.1
 4 96092 IR005   2.1
 4 96093 IR005   2.1
 4 96094 IR005   2.1
 4 96095 IR005   2.1
 4 96096 IR005   2.1
 4 96097 IR005   2.1
 4 96098 IR005   2.1
 4 96099 IR005   2.1
 4 96100 IR005   2.1
 4 96101 IR005   2.1
 4 96102 IR005   2.1
 4 96104 IR005   2.1
 4 96105 IR005   2.1
 4 96106 IR005   2.1
 4 96107 IR005   2.1
 4 96108 IR005   2.1
 4 96109 IR005   2.1
 4 96110 IR005   2.1
 4 96111 IR005   2.1
 4 96112 IR005   2.1
 4 96113 IR005   2.1
 4 96114 IR005   2.1
 4 96115 IR005   2.1
 4 96116 IR005   2.1
 4 96117 IR005   2.1
 4 96118 IR005   2.1
 4 96119 IR005   2.1
 4 96120 IR005   2.1
 4 96121 IR005   2.1
 4 96122 IR005   2.1
 4 96123 IR005   2.1
 4 96124 IR005   2.1
 4 96125 IR005   2.1
 4 96126 IR005   2.1
 4 96127 IR005   2.1
 4 96128 IR005   2.1
 4 96129 IR005   2.1
 4 96130 IR005   2.1
 4 96131 IR005   2.1
 4 96132 IR005   2.1
 4 96133 IR005   2.1
 4 96134 IR005   2.1
 4 96135 IR005   2.1
 4 96136 IR005   2.1
 4 96137 IR005   2.1
 4 96138 IR005   2.1
 4 96139 IR005   2.1
 4 96140 IR005   2.1
 4 96141 IR005   2.1
 4 96142 IR005   2.1
 4 96143 IR005   2.1
 4 96144 IR005   3.1
 4 96145 IR005   3.1
 4 96146 IR005   3.1
 4 96147 IR005   3.1
 4 96148 IR005   3.1
 4 96149 IR005   3.1
 4 96150 IR005   3.1
 4 96151 IR005   3.1
 4 96152 IR005   3.1
 4 96153 IR005   3.1
 4 96154 IR005   3.1
 4 96155 IR005   3.1
 4 96156 IR005   3.1
 4 96157 IR005   3.1
 4 96158 IR005   4.2
 4 96159 IR005   4.2
 4 96160 IR005   4.2
 4 96161 IR005   4.2
 4 96162 IR005   4.2
 4 96163 IR005   4.2
 4 96164 IR005   4.2
 4 96165 IR005   4.2
 4 96166 IR005   4.2
 4 96167 IR005   4.2
 4 96168 IR005   4.2
 4 96169 IR005   4.2
 4 96170 IR005   4.2
 4 96171 IR005   4.2
 4 96172 IR005   4.2

*FERTILIZERS (INORGANIC)
@F FDATE  FMCD  FACD  FDEP  FAMN  FAMP  FAMK  FAMC  FAMO  FOCD FERNAME
 1 96074 FE003 AP002    10    80    10    64   -99   -99   -99 -99
 1 96088 FE003 AP002     1    12     0    10   -99   -99   -99 -99
 1 96095 FE003 AP002     1    12     0    10   -99   -99   -99 -99
 1 96102 FE003 AP002     1    96     0    10   -99   -99   -99 -99
 2 96074 FE003 AP002    10    80    10    64   -99   -99   -99 -99
 2 96088 FE003 AP002     1    12     0    10   -99   -99   -99 -99
 2 96095 FE003 AP002     1    12     0    10   -99   -99   -99 -99
 2 96102 FE003 AP002     1    12     0    10   -99   -99   -99 -99
 2 96109 FE003 AP002     1    12     0    10   -99   -99   -99 -99
 2 96109 FE003 AP002     1    12     0    10   -99   -99   -99 -99
 2 96116 FE003 AP002     1    72     0    10   -99   -99   -99 -99
 3 96074 FE003 AP002    10    80    10    64   -99   -99   -99 -99
 3 96088 FE003 AP002     1    12     0    10   -99   -99   -99 -99
 3 96095 FE003 AP002     1    12     0    10   -99   -99   -99 -99
 3 96102 FE003 AP002     1    12     0    10   -99   -99   -99 -99
 3 96109 FE003 AP002     1    12     0    10   -99   -99   -99 -99
 3 96116 FE003 AP002     1    12     0    10   -99   -99   -99 -99
 3 96123 FE003 AP002     1    12     0    10   -99   -99   -99 -99
 3 96130 FE003 AP002     1    12     0    10   -99   -99   -99 -99
 3 96137 FE003 AP002     1    12     0    10   -99   -99   -99 -99
 3 96144 FE003 AP002     1    12     0    10   -99   -99   -99 -99
 4 96074 FE003 AP002    10    80    10    64   -99   -99   -99 -99
 4 96088 FE003 AP002     1    12     0    10   -99   -99   -99 -99
 4 96095 FE003 AP002     1    12     0    10   -99   -99   -99 -99
 4 96102 FE003 AP002     1    12     0    10   -99   -99   -99 -99
 4 96109 FE003 AP002     1    12     0    10   -99   -99   -99 -99
 4 96116 FE003 AP002     1    12     0    10   -99   -99   -99 -99
 4 96123 FE003 AP002     1    12     0    10   -99   -99   -99 -99
 4 96130 FE003 AP002     1    12     0    10   -99   -99   -99 -99
 4 96137 FE003 AP002     1    12     0    10   -99   -99   -99 -99
 4 96144 FE003 AP002     1    12     0    10   -99   -99   -99 -99
 4 96151 FE003 AP002     1    12     0    10   -99   -99   -99 -99

*RESIDUES AND ORGANIC FERTILIZER
@R RDATE  RCOD  RAMT  RESN  RESP  RESK  RINP  RDEP  RMET RENAME
 1 96061 RE004     0     6     2   1.5   100    10   -99 -99

*HARVEST DETAILS
@H HDATE  HSTG  HCOM HSIZE   HPC  HBPC HNAME
 1 96172 GS000   -99   -99   -99   -99 

*SIMULATION CONTROLS
@N GENERAL     NYERS NREPS START SDATE RSEED SNAME.................... SMODEL
 1 GE              1     1     S 96061  2150 POTENTIAL YIELD
@N OPTIONS     WATER NITRO SYMBI PHOSP POTAS DISES  CHEM  TILL   CO2
 1 OP              N     N     N     N     N     N     N     N     M
@N METHODS     WTHER INCON LIGHT EVAPO INFIL PHOTO HYDRO NSWIT MESOM MESEV MESOL
 1 ME              M     M     E     R     S     L     R     1     G     S     2
@N MANAGEMENT  PLANT IRRIG FERTI RESID HARVS
 1 MA              R     A     R     N     R
@N OUTPUTS     FNAME OVVEW SUMRY FROPT GROUT CAOUT WAOUT NIOUT MIOUT DIOUT VBOSE CHOUT OPOUT
 1 OU              N     Y     Y     1     Y     Y     Y     Y     N     N     Y     N     N

@  AUTOMATIC MANAGEMENT
@N PLANTING    PFRST PLAST PH2OL PH2OU PH2OD PSTMX PSTMN
 1 PL          96020 96020    40   100    30    45    40
@N IRRIGATION  IMDEP ITHRL ITHRU IROFF IMETH IRAMT IREFF
 1 IR             30    80   100 GS000 SI005     5     1
@N NITROGEN    NMDEP NMTHR NAMNT NCODE NAOFF
 1 NI            200    50    25 SI001 SI001
@N RESIDUES    RIPCN RTIME RIDEP
 1 RE            100    60    20
@N HARVEST     HFRST HLAST HPCNP HPCNR
 1 HA            172 96172    75     0



