*EXP.DETAILS: UFQU9501TM SPRING 1995,AGRISET,DRIP-IRR.,QUINCY,FL

*GENERAL
@PEOPLE
Johan Scholberg, Ph.D. diss.  B. L. McNeal advisor
@ADDRESS
Drip irrigated, UFGA950002 may be correct soil, but not here
@SITE
Quincy, FL
@ PAREA  PRNO  PLEN  PLDR  PLSP  PLAY HAREA  HRNO  HLEN  HARM.........
    -99   -99   -99   -99   -99   -99   -99   -99   -99   -99

*TREATMENTS                        -------------FACTOR LEVELS------------
@N R O C TNAME.................... CU FL SA IC MP MI MF MR MC MT ME MH SM
 1 1 0 0 95S-Auto irr. N-B "off"    1  1  0  1  1  1  1  0  0  0  0  1  1

*CULTIVARS
@C CR INGENO CNAME
 1 TM TM0005 Agriset 761

*FIELDS
@L ID_FIELD WSTA....  FLSA  FLOB  FLDT  FLDD  FLDS  FLST SLTX  SLDP  ID_SOIL    FLNAME
 1 UFQU0001 UFQU       -99     0 DR000     0     0  0000 SA     180  IBTM910017 -99
 2 UFQU0002 UFQU9501   -99     0 DR000     0     0  0000 SA     180  UFQU950002 -99
@L ...........XCRD ...........YCRD .....ELEV .............AREA .SLEN .FLWR .SLAS FLHST FHDUR
 1             -99             -99       -99               -99   -99   -99   -99   -99   -99
 2             -99             -99       -99               -99   -99   -99   -99   -99   -99

*INITIAL CONDITIONS
@C   PCR ICDAT  ICRT  ICND  ICRN  ICRE  ICWD ICRES ICREN ICREP ICRIP ICRID ICNAME
 1   -99 95048     1     0     1     1   -99   -99   -99   -99   -99   -99 -99
@C  ICBL  SH2O  SNH4  SNO3
 1    15   .21    .5     1
 1    38  .182    .5     1
 1    66  .182    .3     1
 1   112  .287     0     0
 1   157  .267     0     0
 1   203  .294     0     0
@C   PCR ICDAT  ICRT  ICND  ICRN  ICRE  ICWD ICRES ICREN ICREP ICRIP ICRID ICNAME
 2   -99 95048     1     0     1     1   -99   -99   -99   -99   -99   -99 -99
@C  ICBL  SH2O  SNH4  SNO3
 2    15   .21    .5     2
 2    38  .182    .5     2
 2    66  .182    .3     2
 2   112  .287     0     0
 2   157  .267     0     0
 2   203  .294     0     0
@C   PCR ICDAT  ICRT  ICND  ICRN  ICRE  ICWD ICRES ICREN ICREP ICRIP ICRID ICNAME
 3   -99 95048     1     0     1     1   -99   -99   -99   -99   -99   -99 -99
@C  ICBL  SH2O  SNH4  SNO3
 3    15   .21    .5     3
 3    38  .182    .5     3
 3    66  .182    .3     3
 3   112  .287     0     0
 3   157  .267     0     0
 3   203  .294     0     0

*PLANTING DETAILS
@P PDATE EDATE  PPOP  PPOE  PLME  PLDS  PLRS  PLRD  PLDP  PLWT  PAGE  PENV  PLPH  SPRL                        PLNAME
 1 95087   -99    .9    .9     T     R   183    90     1     3    27    25     1   -99                        -99

*IRRIGATION AND WATER MANAGEMENT
@I  EFIR  IDEP  ITHR  IEPT  IOFF  IAME  IAMT IRNAME
 1     1    20    80    95   -99   -99   -99 -99
@I IDATE  IROP IRVAL
 1 95001 IR005   1.9
 1 95002 IR005   1.9
 1 95003 IR005   1.9
 1 95004 IR005   1.9
 1 95005 IR005   1.9
 1 95006 IR005   1.9
 1 95007 IR005   1.9
 1 95008 IR005   1.9
 1 95009 IR005   1.9
 1 95087 IR005   1.9
 1 95089 IR005   1.9
 1 95091 IR005   1.9
 1 95093 IR005   1.9
 1 95095 IR005   1.9
 1 95097 IR005   1.9
 1 95099 IR005   1.9
 1 95110 IR005   1.9
 1 95111 IR005   1.9
 1 95112 IR005   1.9
 1 95113 IR005   1.9
 1 95114 IR005   1.9
 1 95115 IR005   3.8
 1 95116 IR005   3.8
 1 95117 IR005   3.8
 1 95118 IR005   3.8
 1 95119 IR005   3.8
 1 95120 IR005   3.8
 1 95121 IR005   3.8
 1 95122 IR005   3.8
 1 95123 IR005   3.8
 1 95124 IR005   3.8
 1 95125 IR005   3.8
 1 95126 IR005   3.8
 1 95127 IR005   3.8
 1 95128 IR005   3.8
 1 95129 IR005   3.8
 1 95130 IR005   3.8
 1 95131 IR005   3.8
 1 95132 IR005   3.8
 1 95133 IR005   3.8
 1 95134 IR005   3.8
 1 95135 IR005   7.6
 1 95136 IR005   7.6
 1 95137 IR005   7.6
 1 95138 IR005   7.6
 1 95139 IR005   7.6
 1 95140 IR005   7.6
 1 95141 IR005   7.6
 1 95142 IR005   7.6
 1 95143 IR005   7.6
 1 95144 IR005   7.6
 1 95145 IR005   7.6
 1 95146 IR005   7.6
 1 95147 IR005   7.6
 1 95148 IR005   7.6
 1 95149 IR005   7.6
 1 95150 IR005   7.6
 1 95151 IR005   7.6
 1 95152 IR005   7.6
 1 95153 IR005   7.6
 1 95154 IR005   7.6
 1 95155 IR005   7.6
 1 95156 IR005   7.6
 1 95157 IR005   7.6
 1 95158 IR005   7.6
 1 95159 IR005   7.6
 1 95160 IR005   7.6
 1 95161 IR005   7.6
 1 95162 IR005   7.6
 1 95163 IR005   7.6
 1 95164 IR005   7.6
 1 95165 IR005   7.6
 1 95166 IR005   7.6
 1 95167 IR005   7.6
 1 95168 IR005   7.6
 1 95169 IR005   7.6
 1 95170 IR005   7.6
 1 95171 IR005   7.6
 1 95172 IR005   7.6
 1 95173 IR005   7.6
 1 95174 IR005   7.6
 1 95175 IR005   7.6
 1 95176 IR005   7.6
 1 95177 IR005   7.6
 1 95178 IR005   7.6
 1 95179 IR005   7.6
 1 95180 IR005   7.6
 1 95181 IR005   7.6
 1 95182 IR005   7.6
 1 95183 IR005   7.6
 1 95184 IR005   7.6
 1 95185 IR005   7.6
 1 95186 IR005   7.6
 1 95187 IR005   7.6
 1 95188 IR005   7.6
 1 95189 IR005   7.6
 1 95190 IR005   7.6

*FERTILIZERS (INORGANIC)
@F FDATE  FMCD  FACD  FDEP  FAMN  FAMP  FAMK  FAMC  FAMO  FOCD FERNAME
 1 95077 FE001 AP004     5   200     0     0     0     0     0 -99

*HARVEST DETAILS
@H HDATE  HSTG  HCOM HSIZE   HPC  HBPC HNAME
 1 95177 GS000   -99   -99   -99   -99 

*SIMULATION CONTROLS
@N GENERAL     NYERS NREPS START SDATE RSEED SNAME.................... SMODEL
 1 GE              1     1     S 95076  2150 Potential growth
@N OPTIONS     WATER NITRO SYMBI PHOSP POTAS DISES  CHEM  TILL   CO2
 1 OP              N     N     N     N     N     N     N     N     M
@N METHODS     WTHER INCON LIGHT EVAPO INFIL PHOTO HYDRO NSWIT MESOM MESEV MESOL
 1 ME              M     M     E     R     S     L     R     1     G     S     2
@N MANAGEMENT  PLANT IRRIG FERTI RESID HARVS
 1 MA              R     A     R     N     R
@N OUTPUTS     FNAME OVVEW SUMRY FROPT GROUT CAOUT WAOUT NIOUT MIOUT DIOUT VBOSE CHOUT OPOUT
 1 OU              N     Y     Y     1     Y     Y     Y     Y     N     N     Y     N     N

@  AUTOMATIC MANAGEMENT
@N PLANTING    PFRST PLAST PH2OL PH2OU PH2OD PSTMX PSTMN
 1 PL          95064 95064    40   100    30    45    40
@N IRRIGATION  IMDEP ITHRL ITHRU IROFF IMETH IRAMT IREFF
 1 IR             30    80   100 GS000 IR005    10     1
@N NITROGEN    NMDEP NMTHR NAMNT NCODE NAOFF
 1 NI            200    50    25 SI001 SI001
@N RESIDUES    RIPCN RTIME RIDEP
 1 RE            100    60    20
@N HARVEST     HFRST HLAST HPCNP HPCNR
 1 HA            177 95177    75     0



