*GROWTH ASPECTS OUTPUT FILE

*DSSAT Cropping System Model Ver. 4.6.1.004 -QUT_N2O      JUN 21, 2016; 16:44:06
                                                                                
*RUN   3        : P1 maize                  MZCER046 QUKY3111    1              
 MODEL          : MZCER046 - Maize                                              
 EXPERIMENT     : QUKY3111 sq Kingaroy Wheat-Maize Conventional (CNV) N Trt     
 DATA PATH      : C:\DSSAT46\Sequence\PeterGrace\                               
 TREATMENT  3   : P1 maize                  MZCER046                            
  
!                                                                                                                                                                                                                                      Root Dens. (cm/cm3) by soil depth (cm):
!                                                                                                                                                                                                                                      0-5    5-10   10-20   20-30   30-40   40-50   50-60   60-70   70-80   80-90
@YEAR DOY   DAS   DAP   L#SD   GSTD   LAID   LWAD   SWAD   GWAD   RWAD   VWAD   CWAD   G#AD   GWGD   HIAD   PWAD   P#AD   WSPD   WSGD   NSTD   EWSD  PST1A  PST2A   KSTD   LN%D   SH%D   HIPD   PWDD   PWTD     SLAD   CHTD   CWID   RDPD    RL1D    RL2D    RL3D    RL4D    RL5D    RL6D    RL7D    RL8D    RL9D   RL10D   CDAD   LDAD   SDAD   SNW0C   SNW1C  DTTD
 2011 349     1     0    0.0      0   0.00      0      0      0      0      0      0      0    0.0  0.000      0      0  0.000  0.000  0.000  0.000  0.000  0.000  0.000   0.00   0.00   0.00      0      0      0.0   0.00   0.00   0.05    0.00    0.00    0.00    0.00    0.00    0.00    0.00    0.00    0.00    0.00      0      0      0       0       0 13.71
 2011 350     2     1    0.0      0   0.00      0      0      0      0      0      0      0    0.0  0.000      0      0  0.000  0.000  0.000  0.000  0.000  0.000  0.000   0.00   0.00   0.00      0      0      0.0   0.00   0.00   0.07    0.00    0.00    0.00    0.00    0.00    0.00    0.00    0.00    0.00    0.00      0      0      0       0       0 12.05
 2011 351     3     2    0.0      0   0.00      0      0      0      0      0      0      0    0.0  0.000      0      0  0.000  0.000  0.000  0.000  0.000  0.000  0.000   0.00   0.00   0.00      0      0      0.0   0.00   0.00   0.09    0.00    0.00    0.00    0.00    0.00    0.00    0.00    0.00    0.00    0.00      0      0      0       0       0 12.97
 2011 352     4     3    0.0      0   0.00      0      0      0      0      0      0      0    0.0  0.000      0      0  0.000  0.000  0.000  0.000  0.000  0.000  0.000   0.00   0.00   0.00      0      0      0.0   0.00   0.00   0.11    0.00    0.00    0.00    0.00    0.00    0.00    0.00    0.00    0.00    0.00      0      0      0       0       0 12.24
 2011 353     5     4    0.0      0   0.00      0      0      0      0      0      0      0    0.0  0.000      0      0  0.000  0.000  0.000  0.000  0.000  0.000  0.000   0.00   0.00   0.00      0      0      0.0   0.00   0.00   0.12    0.00    0.00    0.00    0.00    0.00    0.00    0.00    0.00    0.00    0.00      0      0      0       0       0 11.40
 2011 354     6     5    0.0      0   0.00      0      0      0      0      0      0      0    0.0  0.000      0      0  0.000  0.000  0.000  0.000  0.000  0.000  0.000   0.00   0.00   0.00      0      0      0.0   0.00   0.00   0.15    0.00    0.00    0.00    0.00    0.00    0.00    0.00    0.00    0.00    0.00      0      0      0       0       0 15.07
 2011 355     7     6    0.0      0   0.00      0      0      0      0      0      0      0    0.0  0.000      0      0  0.000  0.000  0.000  0.000  0.000  0.000  0.000   0.00   0.00   0.00      0      0      0.0   0.00   0.00   0.17    0.00    0.00    0.00    0.00    0.00    0.00    0.00    0.00    0.00    0.00      0      0      0       0       0 14.23
 2011 356     8     7    2.0      1   0.00     18     18      0     18     36     36      0    0.0  0.000      0      0  0.000  0.000  0.012  0.000  0.000  0.000  0.000   4.40   0.00   0.00      0      0     26.9   0.00   0.00   0.18    0.36    0.36    0.12    0.00    0.00    0.00    0.00    0.00    0.00    0.00      0      0      0       0       0 14.46
 2011 357     9     8    2.0      1   0.01     18     18      0     18     36     36      0    0.0  0.000      0      0  0.000  0.000  0.013  0.000  0.000  0.000  0.000   4.40   0.00   0.00      0      0     53.3   0.00   0.00   0.19    0.37    0.36    0.12    0.00    0.00    0.00    0.00    0.00    0.00    0.00      0      0      0       0       0 14.68
 2011 358    10     9    3.0      1   0.02     18     18      0     19     36     36      0    0.0  0.000      0      0  0.000  0.000  0.007  0.000  0.000  0.000  0.000   4.40   0.00   0.00      0      0     84.4   0.01   0.00   0.21    0.39    0.37    0.12    0.00    0.00    0.00    0.00    0.00    0.00    0.00      0      0      0       0       0 15.15
 2011 359    11    10    3.0      1   0.02     18     18      0     22     36     36      0    0.0  0.000      0      0  0.000  0.000  0.000  0.000  0.000  0.000  0.000   4.40   0.00   0.00      0      0    121.0   0.01   0.00   0.22    0.43    0.41    0.13    0.00    0.00    0.00    0.00    0.00    0.00    0.00      0      0      0       0       0 15.88
 2011 360    12    11    4.0      1   0.05     18     18      0     26     36     36      0    0.0  0.000      0      0  0.000  0.000  0.000  0.000  0.000  0.000  0.000   4.40   0.00   0.00      0      0    255.8   0.02   0.00   0.24    0.50    0.46    0.14    0.00    0.00    0.00    0.00    0.00    0.00    0.00      0      0      0       0       0 17.27
 2011 361    13    12    4.0      1   0.08     23     18      0     29     41     41      0    0.0  0.000      0      0  0.000  0.000  0.000  0.000  0.000  0.000  0.000   3.86   0.00   0.00      0      0    326.8   0.03   0.00   0.25    0.55    0.50    0.15    0.01    0.00    0.00    0.00    0.00    0.00    0.00      0      0      0       0       0 17.45
 2011 362    14    13    5.0      1   0.11     35     18      0     33     53     53      0    0.0  0.000      0      0  0.000  0.000  0.000  0.000  0.000  0.000  0.000   3.28   0.00   0.00      0      0    300.1   0.04   0.00   0.27    0.63    0.56    0.17    0.01    0.00    0.00    0.00    0.00    0.00    0.00      0      0      0       0       0 15.46
 2011 363    15    14    5.0      1   0.14     49     18      0     35     67     67      0    0.0  0.000      0      0  0.000  0.000  0.000  0.000  0.000  0.000  0.000   3.33   0.00   0.00      0      0    280.6   0.05   0.00   0.28    0.66    0.59    0.17    0.01    0.00    0.00    0.00    0.00    0.00    0.00      0      0      0       0       0 14.51
 2011 364    16    15    5.0      1   0.17     66     18      0     47     84     84      0    0.0  0.000      0      0  0.000  0.000  0.000  0.000  0.000  0.000  0.000   3.31   0.00   0.00      0      0    264.1   0.07   0.00   0.29    0.84    0.73    0.21    0.04    0.00    0.00    0.00    0.00    0.00    0.00      0      0      0       0       0 15.01
 2011 365    17    16    6.0      1   0.21     85     18      0     63    103    103      0    0.0  0.000      0      0  0.000  0.000  0.000  0.000  0.000  0.000  0.000   3.32   0.00   0.00      0      0    250.3   0.08   0.00   0.31    1.07    0.92    0.27    0.07    0.00    0.00    0.00    0.00    0.00    0.00      0      0      0       0       1 14.92
 2012 001    18    17    6.0      1   0.26    108     18      0     86    126    126      0    0.0  0.000      0      0  0.000  0.000  0.000  0.000  0.000  0.000  0.000   3.32   0.00   0.00      0      0    238.5   0.10   0.00   0.32    1.42    1.20    0.35    0.12    0.01    0.00    0.00    0.00    0.00    0.00      0      0      0       0       1 14.76
 2012 002    19    18    6.0      1   0.30    133     18      0    114    151    151      0    0.0  0.000      0      0  0.000  0.000  0.000  0.000  0.000  0.000  0.000   3.35   0.00   0.00      0      0    228.4   0.12   0.00   0.33    1.84    1.54    0.46    0.17    0.02    0.00    0.00    0.00    0.00    0.00      0      0      0       0       1 14.01
 2012 003    20    19    7.0      1   0.36    163     18      0    143    181    181      0    0.0  0.000      0      0  0.000  0.000  0.000  0.000  0.000  0.000  0.000   3.31   0.00   0.00      0      0    219.0   0.14   0.00   0.34    2.27    1.87    0.56    0.23    0.05    0.00    0.00    0.00    0.00    0.00      0      0      0       0       2 14.64
 2012 004    21    20    7.0      1   0.42    202     18      0    183    220    220      0    0.0  0.000      0      0  0.000  0.000  0.000  0.000  0.000  0.000  0.000   3.22   0.00   0.00      0      0    209.5   0.16   0.00   0.37    2.85    2.30    0.69    0.31    0.10    0.00    0.00    0.00    0.00    0.00      0      0      0       0       3 16.27
 2012 005    22    21    8.0      2   0.51    235     18      0    228    253    253      0    0.0  0.000      0      0  0.000  0.000  0.000  0.000  0.000  0.000  0.000   3.37   0.00   0.00      0      0    216.8   0.20   0.00   0.39    3.26    2.78    0.97    0.41    0.16    0.00    0.00    0.00    0.00    0.00      0      0      0       0       4 16.37
 2012 006    23    22    8.0      2   0.62    298     18      0    272    316    316      0    0.0  0.000      0      0  0.000  0.000  0.003  0.000  0.000  0.000  0.000   3.12   0.00   0.00      0      0    206.5   0.24   0.00   0.42    3.62    3.21    1.23    0.52    0.25    0.00    0.00    0.00    0.00    0.00      0      0      0       0       5 17.94
 2012 007    24    23    9.0      2   0.72    365     18      0    316    383    383      0    0.0  0.000      0      0  0.000  0.000  0.000  0.000  0.000  0.000  0.000   3.16   0.00   0.00      0      0    198.0   0.28   0.00   0.44    3.97    3.65    1.50    0.63    0.33    0.02    0.00    0.00    0.00    0.00      0      0      0       0       6 16.64
 2012 008    25    24    9.0      2   0.86    457     18      0    367    475    475      0    0.0  0.000      0      0  0.000  0.000  0.000  0.000  0.000  0.000  0.000   3.04   0.00   0.00      0      0    188.9   0.33   0.00   0.47    4.00    4.00    1.81    0.77    0.42    0.05    0.00    0.00    0.00    0.00      0      0      0       0       8 19.56
 2012 009    26    25   10.0      2   1.04    579     18      0    420    597    597      0    0.0  0.000      0      0  0.000  0.000  0.000  0.000  0.000  0.000  0.000   3.76   0.00   0.00      0      0    179.8   0.40   0.00   0.49    4.00    4.00    2.12    0.91    0.51    0.10    0.00    0.00    0.00    0.00      0      0      0       0      10 22.18
 2012 010    27    26   10.0      2   1.24    719     18      0    472    737    737      0    0.0  0.000      0      0  0.000  0.000  0.000  0.000  0.000  0.000  0.000   3.69   0.00   0.00      0      0    171.9   0.48   0.00   0.52    4.00    4.00    2.43    1.02    0.61    0.22    0.00    0.00    0.00    0.00      0      0      0       0      12 21.77
 2012 011    28    27   11.0      3   1.43    864     19      0    531    882    882      0    0.0  0.000      0      0  0.000  0.000  0.000  0.000  0.000  0.000  0.000   3.44   0.00   0.00      0      0    165.2   0.55   0.00   0.54    4.00    4.00    2.75    1.05    0.72    0.44    0.08    0.00    0.00    0.00      0      0      0       0      14 19.88
 2012 012    29    28   11.0      3   1.59    982     20      0    634   1003   1003      0    0.0  0.000      0      0  0.000  0.000  0.000  0.000  0.000  0.000  0.000   3.20   0.00   0.00      0      0    161.4   0.61   0.00   0.56    4.00    4.00    2.91    1.21    0.83    1.02    0.57    0.00    0.00    0.00      0      0      0       0      17 14.75
 2012 013    30    29   12.0      3   1.80   1146     25      0    697   1171   1171      0    0.0  0.000      0      0  0.000  0.000  0.000  0.000  0.000  0.000  0.000   2.88   0.00   0.00      0      0    157.0   0.69   0.00   0.58    4.00    4.00    3.07    1.36    0.94    1.20    1.06    0.00    0.00    0.00      0      0      0       0      20 15.75
 2012 014    31    30   12.0      3   1.95   1272     31      0    711   1303   1303      0    0.0  0.000      0      0  0.000  0.000  0.016  0.000  0.000  0.000  0.000   2.68   0.00   0.00      0      0    153.7   0.75   0.00   0.59    4.00    4.00    3.11    1.40    0.97    1.22    1.17    0.00    0.00    0.00      0      0      0       0      23 12.25
 2012 015    32    31   12.0      3   2.07   1376     39      0    714   1414   1414      0    0.0  0.000      0      0  0.000  0.000  0.070  0.000  0.000  0.000  0.000   2.53   0.00   0.00      0      0    150.2   0.80   0.00   0.60    4.00    4.00    3.11    1.41    0.98    1.22    1.20    0.00    0.00    0.00      0      0      0       0      27 12.75
 2012 016    33    32   12.0      3   2.15   1466     47      0    750   1513   1513      0    0.0  0.000      0      0  0.000  0.000  0.103  0.000  0.000  0.000  0.000   2.40   0.00   0.00      0      0    146.6   0.83   0.00   0.61    4.00    4.00    3.27    1.55    1.09    1.29    1.25    0.01    0.00    0.00      0      0      0       0      30 11.00
 2012 017    34    33   13.0      3   2.22   1557     57      0    778   1614   1614      0    0.0  0.000      0      0  0.000  0.000  0.127  0.000  0.000  0.000  0.000   2.29   0.00   0.00      0      0    142.8   0.86   0.00   0.61    4.00    4.00    3.39    1.66    1.18    1.35    1.29    0.03    0.00    0.00      0      0      0       0      34 11.75
 2012 018    35    34   13.0      3   2.32   1674     76      0    822   1749   1749      0    0.0  0.000      0      0  0.000  0.000  0.142  0.000  0.000  0.000  0.000   2.13   0.00   0.00      0      0    138.7   0.89   0.00   0.62    4.00    4.00    3.57    1.84    1.30    1.43    1.35    0.06    0.00    0.00      0      0      0       0      38 16.00
 2012 019    36    35   14.0      3   2.42   1795    101      0    909   1896   1896      0    0.0  0.000      0      0  0.000  0.000  0.157  0.000  0.000  0.000  0.000   3.30   0.00   0.00      0      0    134.7   0.93   0.00   0.63    4.00    4.00    3.59    1.85    1.32    1.43    1.35    0.06    0.00    0.00      0      0      0       0      42 17.25
 2012 020    37    36   14.0      3   2.63   1979    149      0    978   2128   2128      0    0.0  0.000      0      0  0.000  0.000  0.000  0.000  0.000  0.000  0.000   3.22   0.00   0.00      0      0    132.9   1.01   0.00   0.64    4.00    4.00    3.59    1.87    1.33    1.44    1.36    0.07    0.00    0.00      0      0      0       0      47 15.75
 2012 021    38    37   14.0      3   2.85   2168    209      0   1047   2377   2377      0    0.0  0.000      0      0  0.000  0.000  0.000  0.000  0.000  0.000  0.000   3.18   0.00   0.00      0      0    131.3   1.10   0.00   0.65    4.00    4.00    3.59    1.88    1.33    1.44    1.36    0.08    0.00    0.00      0      0      0       0      52 15.75
 2012 022    39    38   15.0      3   3.06   2356    281      0   1071   2638   2638      0    0.0  0.000      0      0  0.000  0.000  0.000  0.000  0.000  0.000  0.000   3.13   0.00   0.00      0      0    129.8   1.18   0.00   0.65    4.00    4.00    3.58    1.87    1.33    1.43    1.35    0.08    0.00    0.00      0      0      0       0      57 15.50
 2012 023    40    39   15.0      3   3.17   2458    327      0   1074   2785   2785      0    0.0  0.000      0      0  0.000  0.000  0.000  0.000  0.000  0.000  0.000   3.10   0.00   0.00      0      0    129.0   1.22   0.00   0.66    4.00    4.00    3.57    1.86    1.33    1.43    1.34    0.08    0.00    0.00      0      0      0       0      62 13.75
 2012 024    41    40   16.0      3   3.28   2557    378      0   1077   2935   2935      0    0.0  0.000      0      0  0.000  0.000  0.000  0.000  0.000  0.000  0.000   3.06   0.00   0.00      0      0    128.2   1.26   0.00   0.67    4.00    4.00    3.58    1.85    1.32    1.42    1.34    0.08    0.00    0.00      0      0      0       0      68 14.75
 2012 025    42    41   16.0      3   3.41   2673    448      0   1082   3121   3121      0    0.0  0.000      0      0  0.000  0.000  0.000  0.000  0.000  0.000  0.000   3.02   0.00   0.00      0      0    127.4   1.31   0.00   0.68    4.00    4.00    3.64    1.87    1.31    1.41    1.33    0.08    0.00    0.00      0      0      0       0      73 15.50
 2012 026    43    42   16.0      3   3.55   2804    538      0   1089   3343   3343      0    0.0  0.000      0      0  0.000  0.000  0.000  0.000  0.000  0.000  0.000   2.97   0.00   0.00      0      0    126.5   1.37   0.00   0.68    4.00    4.00    3.70    1.91    1.32    1.41    1.32    0.08    0.00    0.00      0      0      0       0      78 16.75
 2012 027    44    43   17.0      3   3.62   2872    591      0   1090   3463   3463      0    0.0  0.000      0      0  0.000  0.000  0.000  0.000  0.000  0.000  0.000   2.94   0.00   0.00      0      0    126.0   1.39   0.00   0.69    4.00    4.00    3.73    1.93    1.32    1.40    1.32    0.08    0.00    0.00      0      0      0       0      84 14.50
 2012 028    45    44   17.0      3   3.69   2937    648      0   1092   3585   3585      0    0.0  0.000      0      0  0.000  0.000  0.000  0.000  0.000  0.000  0.000   2.90   0.00   0.00      0      0    125.6   1.42   0.00   0.70    4.00    4.00    3.75    1.96    1.33    1.39    1.31    0.08    0.00    0.00      0      0      0       0      89 13.75
 2012 029    46    45   17.0      3   3.78   3026    734      0   1096   3760   3760      0    0.0  0.000      0      0  0.000  0.000  0.000  0.000  0.000  0.000  0.000   2.86   0.00   0.00      0      0    125.0   1.46   0.00   0.71    4.00    4.00    3.80    1.99    1.35    1.39    1.30    0.08    0.00    0.00      0      0      0       0      95 15.00
 2012 030    47    46   18.0      3   3.90   3137    853      0   1103   3990   3990      0    0.0  0.000      0      0  0.000  0.000  0.000  0.000  0.000  0.000  0.000   2.82   0.00   0.00      0      0    124.3   1.50   0.00   0.71    4.00    4.00    3.85    2.04    1.38    1.39    1.29    0.08    0.00    0.00      0      0      0       0     100 16.50
 2012 031    48    47   18.0      3   4.04   3266   1009      0   1114   4275   4275      0    0.0  0.000      0      0  0.000  0.000  0.000  0.000  0.000  0.000  0.000   2.78   0.00   0.00      0      0    123.5   1.55   0.00   0.72    4.00    4.00    3.93    2.11    1.41    1.39    1.29    0.08    0.00    0.00      0      0      0       0     106 16.00
 2012 032    49    48   19.0      3   4.21   3436   1230      0   1130   4666   4671      0    0.0  0.000      5      0  0.000  0.000  0.000  0.000  0.000  0.000  0.000   2.75   0.00   0.00      0      5    122.5   1.60   0.00   0.72    4.00    4.00    4.00    2.20    1.47    1.40    1.28    0.08    0.00    0.00      0      0      0       0     111 17.25
 2012 033    50    49   19.0      3   4.47   3702   1413      0   1150   5115   5125      0    0.0  0.000     10      0  0.000  0.000  0.000  0.000  0.000  0.000  0.000   2.70   0.00   0.00      0     10    120.9   1.60   0.00   0.73    4.00    4.00    4.00    2.31    1.54    1.42    1.29    0.08    0.00    0.00      0      0      0       0     117 15.25
 2012 034    51    50   19.0      3   4.57   3813   1539      0   1157   5352   5365      0    0.0  0.000     13      0  0.000  0.000  0.000  0.000  0.000  0.000  0.000   2.68   0.00   0.00      0     13    119.8   1.60   0.00   0.73    4.00    4.00    4.00    2.36    1.59    1.44    1.28    0.08    0.00    0.00      0      0      0       0     123 13.00
 2012 035    52    51   20.0      3   4.70   3960   1753      0   1172   5713   5736      0    0.0  0.000     22      0  0.000  0.000  0.000  0.000  0.000  0.000  0.000   2.57   0.00   0.00      0     22    118.6   1.60   0.00   0.74    4.00    4.00    4.00    2.43    1.70    1.47    1.28    0.10    0.00    0.00      0      0      0       0     129 15.50
 2012 036    53    52   20.0      3   4.84   4133   2042      0   1193   6175   6220      0    0.0  0.000     45      0  0.000  0.000  0.000  0.000  0.000  0.000  0.000   2.41   0.00   0.01      0     45    117.1   1.60   0.00   0.74    4.00    4.00    4.00    2.50    1.76    1.51    1.31    0.19    0.01    0.00      0      0      0       0     134 15.00
 2012 037    54    53   21.0      3   4.96   4291   2344      0   1215   6635   6708      0    0.0  0.000     74      0  0.000  0.000  0.000  0.000  0.000  0.000  0.000   2.27   0.00   0.01      0     74    115.7   1.60   0.00   0.75    4.00    4.00    4.00    2.57    1.82    1.54    1.34    0.27    0.03    0.00      0      0      0       0     140 18.50
 2012 038    55    54   21.0      3   5.03   4403   2576      0   1229   6979   7078      0    0.0  0.000     99      0  0.000  0.000  0.018  0.000  0.000  0.000  0.000   2.17   0.00   0.01      0     99    114.4   1.60   0.00   0.76    4.00    4.00    4.00    2.63    1.86    1.57    1.35    0.32    0.04    0.00      0      0      0       0     146 17.25
 2012 039    56    55   22.0      3   5.10   4516   2813      0   1245   7329   7476      0    0.0  0.000    147      0  0.000  0.000  0.043  0.000  0.000  0.000  0.000   2.08   0.00   0.02      0    147    113.0   1.60   0.00   0.76    4.00    4.00    4.00    2.69    1.90    1.60    1.38    0.37    0.06    0.00      0      0      0       0     153 15.25
 2012 040    57    56   22.0      3   5.16   4620   3018      0   1297   7639   7857      0    0.0  0.000    219      0  0.000  0.000  0.057  0.000  0.000  0.000  0.000   2.00   0.00   0.03      0    219    111.7   1.60   0.00   0.77    4.00    4.00    4.00    2.87    2.04    1.69    1.44    0.46    0.10    0.00      0      0      0       0     159 15.00
 2012 041    58    57   22.0      3   5.21   4722   3212      0   1350   7934   8248      0    0.0  0.000    314      0  0.000  0.000  0.070  0.000  0.000  0.000  0.000   1.93   0.00   0.04      0    314    110.3   1.60   0.00   0.77    4.00    4.00    4.00    3.06    2.19    1.78    1.51    0.54    0.15    0.00      0      0      0       0     165 16.25
 2012 042    59    58   23.0      3   5.25   4816   3376      0   1399   8192   8621      0    0.0  0.000    429      0  0.000  0.000  0.080  0.000  0.000  0.000  0.000   1.88   0.00   0.05      0    429    108.9   1.60   0.00   0.78    4.00    4.00    4.00    3.25    2.33    1.88    1.58    0.58    0.20    0.00      0      0      0       0     172 16.25
 2012 043    60    59   23.0      3   5.27   4906   3514      0   1435   8420   8980      0    0.0  0.000    560      0  0.000  0.000  0.088  0.000  0.000  0.000  0.000   1.84   0.00   0.06      0    560    107.5   1.60   0.00   0.78    4.00    4.00    4.00    3.39    2.43    1.94    1.63    0.61    0.23    0.00      0      0      0       0     179 16.00
 2012 044    61    60   23.0      3   5.30   4994   3613      0   1482   8607   9331      0    0.0  0.000    724      0  0.000  0.000  0.094  0.000  0.000  0.000  0.000   1.80   0.00   0.08      0    724    106.0   1.60   0.00   0.79    4.00    4.00    4.00    3.57    2.57    2.03    1.70    0.62    0.28    0.00      0      0      0       0     186 16.00
 2012 045    62    61   23.0      3   5.31   5075   3669      0   1534   8744   9650      0    0.0  0.000    907      0  0.000  0.000  0.099  0.000  0.000  0.000  0.000   1.78   0.00   0.09      0    907    104.6   1.60   0.00   0.79    4.00    4.00    4.00    3.77    2.72    2.13    1.77    0.63    0.32    0.00      0      0      0       0     194 14.75
 2012 046    63    62   23.0      3   5.31   5154   3685      0   1599   8838   9961      0    0.0  0.000   1123      0  0.000  0.000  0.102  0.000  0.000  0.000  0.000   1.77   0.00   0.11      0   1123    103.1   1.60   0.00   0.80    4.00    4.00    4.00    4.00    2.90    2.25    1.86    0.65    0.38    0.00      0      0      0       0     201 14.50
 2012 047    64    63   23.0      3   5.32   5229   3797      0   1679   9026  10261      0    0.0  0.000   1235      0  0.000  0.000  0.103  0.000  0.000  0.000  0.000   1.73   0.00   0.12      0   1235    101.6   1.60   0.00   0.80    4.00    4.00    4.00    4.00    3.12    2.39    1.96    0.67    0.44    0.00      0      0      0       0     209 14.00
 2012 048    65    64   23.0      4   5.25   5176   4039      0   1691   9216  10665      0    0.0  0.000   1449      0  0.000  0.000  0.101  0.000  0.000  0.000  0.000   1.71   0.00   0.14      0   1449    101.4   1.60   0.00   0.81    4.00    4.00    4.00    4.00    3.15    2.41    1.98    0.67    0.44    0.00      0      0      0       0     218 14.25
 2012 049    66    65   23.0      4   5.18   5119   4254      0   1701   9374  11047      0    0.0  0.000   1674      0  0.000  0.000  0.099  0.000  0.000  0.000  0.000   1.68   0.00   0.15      0   1674    101.3   1.60   0.00   0.81    4.00    4.00    4.00    4.00    3.18    2.43    1.99    0.67    0.45    0.00      0      0      0       0     226 15.25
 2012 050    67    66   23.0      4   5.12   5059   4446      0   1711   9504  11408      0    0.0  0.000   1903      0  0.000  0.000  0.098  0.000  0.000  0.000  0.000   1.67   0.00   0.17      0   1903    101.2   1.60   0.00   0.81    4.00    4.00    4.00    4.00    3.21    2.45    2.00    0.67    0.46    0.00      0      0      0       0     235 15.00
 2012 051    68    67   23.0      4   5.06   4993   4629      0   1722   9622  11782      0    0.0  0.000   2161      0  0.000  0.000  0.093  0.000  0.000  0.000  0.000   1.65   0.00   0.18      0   2161    101.3   1.60   0.00   0.82    4.00    4.00    4.00    4.00    3.24    2.46    2.01    0.67    0.46    0.00      0      0      0       0     243 17.50
 2012 052    69    68   23.0      4   5.01   4923   4742      0   1726   9665  12013      0    0.0  0.000   2348      0  0.000  0.000  0.087  0.000  0.000  0.000  0.000   1.65   0.00   0.20      0   2348    101.7   1.60   0.00   0.82    4.00    4.00    4.00    4.00    3.25    2.47    2.02    0.67    0.47    0.00      0      0      0       0     252 18.50
 2012 053    70    69   23.0      4   4.95   4849   4824      0   1727   9673  12170      0    0.0  0.000   2497      0  0.000  0.000  0.082  0.000  0.000  0.000  0.000   1.65   0.00   0.21      0   2497    102.2   1.60   0.00   0.82    4.00    4.00    4.00    4.00    3.26    2.48    2.02    0.67    0.47    0.00      0      0      0       0     260 14.75
 2012 054    71    70   23.0      4   4.91   4772   4876      0   1726   9649  12253      0    0.0  0.000   2605      0  0.000  0.000  0.076  0.000  0.000  0.000  0.000   1.66   0.00   0.21      0   2605    102.8   1.60   0.00   0.82    4.00    4.00    4.00    4.00    3.27    2.48    2.02    0.67    0.47    0.00      0      0      0       0     269 11.75
 2012 055    72    71   23.0      4   4.87   4692   4969      0   1730   9660  12478      0    0.0  0.000   2818      0  0.000  0.000  0.067  0.000  0.000  0.000  0.000   1.66   0.00   0.23      0   2818    103.7   1.60   0.00   0.83    4.00    4.00    4.00    4.00    3.28    2.48    2.03    0.67    0.47    0.00      0      0      0       0     278 13.25
 2012 056    73    72   23.0      4   4.83   4608   5013      0   1729   9620  12558      0    0.0  0.000   2937      0  0.000  0.000  0.056  0.000  0.000  0.000  0.000   1.67   0.00   0.23      0   2937    104.9   1.60   0.00   0.83    4.00    4.00    4.00    4.00    3.28    2.48    2.02    0.67    0.47    0.00      0      0      0       0     286 14.25
 2012 057    74    73   23.0      4   4.80   4520   5066      0   1730   9586  12690      0    0.0  0.000   3104      0  0.000  0.000  0.046  0.000  0.000  0.000  0.000   1.68   0.00   0.24      0   3104    106.2   1.60   0.00   0.83    4.00    4.00    4.00    4.00    3.29    2.49    2.03    0.66    0.47    0.00      0      0      0       0     295 14.50
 2012 058    75    74   23.0      4   4.77   4428   5128      0   1734   9556  12895      0    0.0  0.000   3338      0  0.000  0.000  0.033  0.000  0.000  0.000  0.000   1.69   0.00   0.26      0   3338    107.7   1.60   0.00   0.84    4.00    4.00    4.00    4.00    3.30    2.50    2.03    0.66    0.47    0.00      0      0      0       0     304 14.50
 2012 059    76    75   23.0      4   4.74   4333   5201      0   1743   9534  13212      0    0.0  0.000   3679      0  0.000  0.000  0.020  0.000  0.000  0.000  0.000   1.70   0.00   0.28      0   3679    109.4   1.60   0.00   0.84    4.00    4.00    4.00    4.00    3.34    2.52    2.05    0.67    0.47    0.00      0      0      0       0     312 15.00
 2012 060    77    76   23.0      5   4.71   4333   5201    263   1793   9534  13476   3215    8.2  0.020   3942      9  0.000  0.000  0.006  0.000  0.000  0.000  0.000   1.65   6.68   0.29      0   3942    108.7   1.60   0.00   0.84    4.00    4.00    4.00    4.00    3.48    2.61    2.12    0.68    0.47    0.01      0      0      0       0     321 14.75
 2012 061    78    77   23.0      5   4.68   4333   5201    527   1841   9534  13739   3215   16.4  0.038   4205      9  0.000  0.000  0.016  0.000  0.000  0.000  0.000   1.61  12.52   0.31      0   4205    108.1   1.60   0.00   0.84    4.00    4.00    4.00    4.00    3.61    2.70    2.18    0.69    0.48    0.02      0      0      0       0     330 14.00
 2012 062    79    78   23.0      5   4.66   4333   5201    790   1888   9534  14002   3215   24.6  0.056   4469      9  0.000  0.000  0.020  0.000  0.000  0.000  0.000   1.57  17.68   0.32      0   4469    107.5   1.60   0.00   0.85    4.00    4.00    4.00    4.00    3.72    2.77    2.23    0.70    0.48    0.03      0      0      0       0     339 14.00