*N2O emissions output file

*DSSAT Cropping System Model Ver. 4.6.1.004 -QUT_N2O      JUN 21, 2016; 16:44:06
                                                                                
*RUN   1        : P1 Wheat                  CSCER046 QUKY3111    1              
 MODEL          : CSCER046 - Wheat                                              
 EXPERIMENT     : QUKY3111 sq Kingaroy Wheat-Maize Conventional (CNV) N Trt     
 DATA PATH      : C:\DSSAT46\Sequence\PeterGrace\                               
 TREATMENT  1   : P1 Wheat                  CSCER046                            
  
!              |---------------------- Cumulative -----------------------------|---------------------- Daily ----------------------------------|
!               N20emit  N2emit     CO2   Denit  Nitrif   N2O-denit+nit      N2 N20emit  N2emit     CO2   Denit  Nitrif   N2O-denit+nit      N2   Denitrification (g[N]/ha) by soil depth (cm):                                   Nitrification (kg[N]/ha) by soil depth (cm):                                    N2O flux (g[N]/ha) by soil depth (cm):                                          N2 flux (g[N]/ha) by soil depth (cm):
!                 kg/ha   kg/ha   kg/ha   kg/ha   kg/ha   kg/ha   kg/ha   kg/ha    g/ha    g/ha    g/ha    g/ha    g/ha    g/ha    g/ha    g/ha     0-5    5-10   10-20   20-30   30-40   40-50   50-60   60-70   70-80   80-90     0-5    5-10   10-20   20-30   30-40   40-50   50-60   60-70   70-80   80-90     0-5    5-10   10-20   20-30   30-40   40-50   50-60   60-70   70-80   80-90     0-5    5-10   10-20   20-30   30-40   40-50   50-60   60-70   70-80   80-90
@YEAR DOY   DAS   N2OEC    N2EC   CO2TC    NDNC    NITC   N2ODC   N2ONC   N2FLC   N2OED    N2ED   CO2TD    NDND   NITRD   N2ODD   N2OND   N2FLD   NDN1D   NDN2D   NDN3D   NDN4D   NDN5D   NDN6D   NDN7D   NDN8D   NDN9D   NDN10   NIT1D   NIT2D   NIT3D   NIT4D   NIT5D   NIT6D   NIT7D   NIT8D   NIT9D   NIT10   N2O1D   N2O2D   N2O3D   N2O4D   N2O5D   N2O6D   N2O7D   N2O8D   N2O9D   N2O10   N2F1D   N2F2D   N2F3D   N2F4D   N2F5D   N2F6D   N2F7D   N2F8D   N2F9D   N2F10
 2011 159     1    0.00    0.00      26    0.00     0.2   0.000   0.000   0.000     0.0     0.0   26450     0.0     248    0.00    0.25    0.00     0.0     0.0     0.0     0.0     0.0     0.0     0.0     0.0     0.0     0.0    12.4    12.5    29.2    30.3    23.1    27.4    27.8    28.2    28.6    28.5     0.0     0.0     0.0     0.0     0.0     0.0     0.0     0.0     0.0     0.0     0.0     0.0     0.0     0.0     0.0     0.0     0.0     0.0     0.0     0.0
 2011 160     2    0.00    0.00      53    0.05     0.6   0.028   0.001   0.019     0.4     0.3   26677    47.4     338   28.36    0.34   19.05     0.6     0.5     1.5     1.7     5.5     3.7    15.3    14.7     2.4     1.4   103.6    31.5    39.4    34.0    26.0    26.1    16.9    15.5    22.4    22.3     0.3     0.3     0.8     1.0     3.0     2.3    15.3     1.8     2.5     1.2     0.3     0.2     0.7     0.8     2.5     1.4     0.0    12.9     0.0     0.2
 2011 161     3    0.00    0.00      78    0.10     1.0   0.038   0.001   0.058     0.6     0.4   25124    48.8     397    9.75    0.40   39.10     0.6     0.4     1.0     1.1     3.7     2.3    14.7    21.4     2.3     1.3   172.5    45.3    45.0    33.8    25.6    21.0    13.0     7.2    16.8    16.8     0.4     0.3     0.6     0.7     2.1     1.4     0.7     0.4     2.4     1.1     0.3     0.2     0.4     0.5     1.6     0.9    14.0    21.0     0.0     0.2
 2011 162     4    0.00    0.00     102    0.13     1.4   0.045   0.001   0.085     0.8     0.5   23823    33.2     435    6.52    0.43   26.68     0.7     0.4     0.8     1.0     3.6     1.9     5.2    16.4     2.1     1.2   220.2    54.0    47.1    31.9    23.4    15.3    13.3     3.8    13.0    13.1     0.5     0.3     0.5     0.6     2.1     1.2     0.3     0.2     0.2     1.0     0.3     0.2     0.3     0.4     1.5     0.7     4.9    16.2     1.9     0.2
 2011 163     5    0.00    0.00     124    0.16     1.9   0.052   0.002   0.104     1.1     0.7   21703    27.5     437    7.85    0.44   19.62     0.8     0.4     0.7     0.8     3.5     1.6     3.0    13.6     1.9     1.1   238.9    57.3    45.9    29.4    21.1    10.9    11.7     1.9    10.0    10.0     0.7     0.3     0.4     0.5     2.0     1.0     2.1     0.1     0.1     0.9     0.4     0.2     0.3     0.3     1.4     0.6     0.9    13.5     1.9     0.2
 2011 164     6    0.01    0.01     142    0.19     2.2   0.063   0.002   0.125     4.6     4.5   17749    31.0     329   10.40    0.33   20.59     7.9     1.1     0.7     0.8     3.3     1.2     1.9    11.3     1.7     1.0   148.1    53.3    45.3    27.9    19.7     8.2    10.0     0.9     7.9     8.0     4.0     0.7     0.4     0.5     2.0     0.8     1.4     0.1     0.0     0.8     4.1     0.5     0.3     0.3     1.3     0.4     0.6    11.2     1.7     0.2
 2011 165     7    0.01    0.01     159    0.22     2.5   0.074   0.003   0.144     4.9     4.8   17277    30.0     333   10.63    0.33   19.39     8.4     1.8     0.8     0.7     3.2     1.0     1.5    10.0     1.6     0.9   159.4    51.8    46.1    27.7    19.1     6.5     8.3     0.9     6.6     6.7     4.2     1.1     0.5     0.5     2.0     0.7     1.1     0.1     0.0     0.8     4.3     0.8     0.3     0.3     1.2     0.3     0.4    10.0     1.6     0.2
 2011 166     8    0.02    0.01     177    0.24     2.9   0.083   0.003   0.162     4.1     3.6   17997    27.0     380    9.48    0.38   17.57     5.8     2.2     0.9     0.7     3.1     0.9     1.2     9.7     1.6     0.9   206.1    54.2    47.7    28.1    19.1     5.4     7.1     0.9     5.6     5.7     3.1     1.3     0.6     0.5     1.9     0.6     0.9     0.1     0.0     0.8     2.9     0.9     0.4     0.3     1.2     0.3     0.3     9.7     1.5     0.2
 2011 167     9    0.02    0.02     196    0.27     3.3   0.091   0.003   0.178     3.7     2.8   18761    24.1     432    8.13    0.43   16.01     4.1     1.6     0.7     0.5     2.6     0.6     2.0     9.8     1.5     0.9   251.4    62.9    48.9    28.4    19.6     4.6     5.1     0.9     4.8     4.9     2.4     1.0     0.5     0.3     1.6     0.5     1.5     0.1     0.0     0.7     1.9     0.6     0.3     0.2     1.0     0.2     0.5     9.7     1.5     0.2
 2011 168    10    0.02    0.02     216    0.29     3.8   0.098   0.004   0.193     3.5     2.4   20096    21.9     492    7.01    0.49   14.89     3.0     1.1     0.5     0.3     2.2     0.5     2.2     9.7     1.5     0.9   299.0    72.4    52.0    29.9    20.6     4.0     4.2     1.0     4.3     4.4     1.9     0.8     0.4     0.2     1.4     0.3     1.6     0.1     0.0     0.7     1.4     0.4     0.2     0.1     0.8     0.1     0.6     9.7     1.5     0.2
 2011 169    11    0.03    0.02     237    0.31     4.4   0.105   0.004   0.206     3.4     2.2   21075    20.5     540    7.22    0.54   13.29     2.3     0.8     0.3     0.2     2.0     0.4     2.0    10.1     1.5     0.9   337.2    80.2    54.7    31.2    21.2     3.6     3.6     1.0     3.7     3.8     1.6     0.6     0.3     0.1     1.3     0.3     1.5     0.1     1.3     0.7     1.0     0.3     0.1     0.1     0.8     0.1     0.5    10.0     0.3     0.2
 2011 170    12    0.03    0.02     258    0.33     4.9   0.112   0.005   0.219     3.3     2.0   21167    19.0     562    6.16    0.56   12.88     1.7     0.6     0.2     0.1     1.9     0.3     1.5    10.3     1.5     0.9   355.5    83.9    55.7    31.5    21.2     3.2     3.2     1.0     3.2     3.3     1.3     0.5     0.2     0.1     1.2     0.2     1.1     0.1     1.3     0.7     0.7     0.2     0.1     0.0     0.7     0.1     0.4    10.3     0.3     0.2
 2011 171    13    0.03    0.03     280    0.35     5.5   0.117   0.006   0.231     3.2     1.9   21694    17.3     601    5.15    0.60   12.19     1.2     0.5     0.2     0.0     1.8     0.2     1.0    10.2     1.5     0.9   386.7    89.1    58.3    32.8    21.7     3.0     2.9     1.0     2.9     3.0     1.0     0.4     0.2     0.0     1.2     0.2     0.7     0.1     1.2     0.7     0.5     0.2     0.1     0.0     0.7     0.1     0.2    10.1     0.3     0.1
 2011 172    14    0.04    0.03     301    0.36     6.1   0.121   0.006   0.243     3.1     1.8   21639    16.5     614    4.50    0.61   12.01     0.7     0.4     0.1     0.0     1.8     0.2     0.7    10.4     1.5     0.9   389.0    95.8    60.5    34.0    22.0     2.9     2.5     1.7     2.5     2.7     0.8     0.3     0.1     0.0     1.2     0.2     0.5     0.1     1.2     0.7     0.3     0.1     0.0     0.0     0.6     0.1     0.2    10.3     0.3     0.1
 2011 173    15    0.04    0.03     323    0.38     6.8   0.125   0.007   0.255     2.8     1.6   21748    16.0     627    3.82    0.63   12.16     0.0     0.3     0.0     0.0     1.8     0.2     0.5    10.9     1.4     0.8   394.0    98.7    63.4    35.6    22.6     2.9     2.1     3.0     2.3     2.5     0.4     0.3     0.1     0.0     1.2     0.1     0.3     0.1     1.2     0.7     0.0     0.1     0.0     0.0     0.6     0.1     0.1    10.8     0.2     0.1
 2011 174    16    0.04    0.03     344    0.40     7.4   0.129   0.007   0.269     2.9     1.7   20742    16.7     607    3.64    0.61   13.07     0.0     0.2     0.0     0.0     1.8     0.2     0.4    11.9     1.4     0.8   376.4    96.4    62.9    35.4    22.2     2.8     1.8     4.3     2.1     2.2     0.4     0.2     0.1     0.0     1.2     0.1     0.3     0.1     1.2     0.7     0.0     0.1     0.0     0.0     0.6     0.1     0.1    11.8     0.2     0.1
 2011 175    17    0.05    0.03     364    0.41     8.0   0.132   0.008   0.282     3.0     1.7   19874    16.3     590    3.32    0.59   13.02     0.0     0.0     0.0     0.0     1.7     0.2     0.3    12.0     1.4     0.8   362.0    94.5    62.5    35.4    22.1     2.7     1.6     5.7     1.9     2.0     0.4     0.1     0.1     0.0     1.1     0.1     0.2     0.1     1.1     0.7     0.0     0.0     0.0     0.0     0.6     0.0     0.1    11.9     0.2     0.1
 2011 176    18    0.05    0.03     383    0.43     8.5   0.135   0.009   0.293     3.1     1.8   19365    14.8     583    3.09    0.58   11.66     0.0     0.0     0.0     0.0     1.5     0.2     0.2    10.8     1.3     0.8   353.2    93.9    63.0    35.7    22.3     2.8     1.6     6.8     1.7     1.9     0.4     0.1     0.1     0.0     1.0     0.1     0.1     0.1     1.1     0.6     0.0     0.0     0.0     0.0     0.5     0.0     0.1    10.7     0.2     0.1
 2011 177    19    0.05    0.04     402    0.44     9.1   0.138   0.009   0.301     3.1     1.8   19023    11.1     578    2.95    0.58    8.14     0.0     0.0     0.0     0.0     1.5     0.1     0.2     7.3     1.3     0.8   346.4    93.8    63.6    36.2    22.5     2.9     1.5     7.7     1.6     1.8     0.4     0.1     0.1     0.0     1.0     0.1     0.1     0.1     1.1     0.6     0.0     0.0     0.0     0.0     0.5     0.0     0.0     7.2     0.2     0.1
 2011 178    20    0.05    0.04     421    0.45     9.7   0.141   0.010   0.306     3.2     1.9   18559     7.4     570    2.82    0.57    4.62     0.0     0.0     0.0     0.0     1.4     0.1     0.1     3.8     1.2     0.7   337.9    93.3    63.9    36.5    22.7     3.0     1.5     8.2     1.6     1.8     0.3     0.1     0.1     0.0     1.0     0.1     0.1     0.1     1.0     0.6     0.0     0.0     0.0     0.0     0.5     0.0     0.0     3.8     0.2     0.1
 2011 179    21    0.06    0.04     439    0.45    10.3   0.145   0.010   0.307     3.3     2.0   18390     5.6     566    4.34    0.57    1.26     0.0     0.0     0.0     0.0     1.3     0.1     0.1     2.1     1.2     0.7   331.9    93.3    64.6    37.0    23.1     3.1     1.6     8.3     1.5     1.7     0.3     0.1     0.1     0.0     0.9     0.1     0.1     1.7     1.0     0.6     0.0     0.0     0.0     0.0     0.4     0.0     0.0     0.4     0.2     0.1
 2011 180    22    0.06    0.04     458    0.46    10.8   0.149   0.011   0.308     3.3     2.0   18773     4.7     568    3.59    0.57    1.07     0.0     0.0     0.0     0.0     1.3     0.1     0.1     1.3     1.2     0.7   329.7    94.4    65.9    37.9    23.7     3.3     1.7     8.0     1.5     1.7     0.3     0.1     0.1     0.0     0.9     0.1     0.1     1.0     1.0     0.6     0.0     0.0     0.0     0.0     0.4     0.0     0.0     0.3     0.2     0.1
 2011 181    23    0.06    0.04     477    0.46    11.4   0.152   0.011   0.309     3.4     2.1   18806     4.2     565    3.22    0.56    0.96     0.0     0.0     0.0     0.0     1.3     0.1     0.1     0.8     1.2     0.7   326.5    94.1    66.4    38.3    24.0     3.4     1.7     7.2     1.5     1.7     0.3     0.1     0.1     0.0     0.9     0.1     0.1     0.6     1.0     0.6     0.0     0.0     0.0     0.0     0.4     0.0     0.0     0.2     0.2     0.1
 2011 182    24    0.07    0.05     497    0.47    11.9   0.160   0.012   0.313     8.3     4.7   20431    11.2     524    7.81    0.52    3.37     7.5     0.0     0.0     0.0     1.3     0.1     0.1     0.5     1.0     0.7   290.5    92.2    65.6    38.0    23.9     3.5     1.8     5.7     1.6     1.7     5.3     0.1     0.1     0.0     0.9     0.1     0.1     0.4     0.8     0.6     2.5     0.0     0.0     0.0     0.4     0.0     0.0     0.1     0.2     0.1
 2011 183    25    0.08    0.05     517    0.48    12.4   0.166   0.012   0.316     7.6     4.5   19797     9.7     528    6.73    0.53    2.99     6.5     0.0     0.0     0.0     1.2     0.1     0.1     0.4     0.7     0.7   302.6    89.1    63.4    36.9    23.3     3.5     1.8     4.4     1.6     1.7     4.6     0.1     0.1     0.0     0.9     0.1     0.1     0.3     0.6     0.6     2.3     0.0     0.0     0.0     0.4     0.0     0.0     0.1     0.1     0.1
 2011 184    26    0.09    0.06     536    0.49    13.0   0.172   0.013   0.318     6.4     3.9   19683     7.3     548    5.15    0.55    2.14     4.6     0.0     0.0     0.0     1.1     0.1     0.1     0.2     0.5     0.6   322.5    89.5    63.2    36.9    23.4     3.6     1.9     3.6     1.8     1.7     3.4     0.1     0.1     0.0     0.8     0.1     0.1     0.2     0.4     0.5     1.5     0.0     0.0     0.0     0.3     0.0     0.0     0.1     0.1     0.1
 2011 185    27    0.09    0.06     555    0.50    13.5   0.176   0.014   0.319     5.9     3.8   18958     6.0     556    4.31    0.56    1.73     3.7     0.0     0.0     0.0     1.1     0.1     0.1     0.2     0.3     0.6   335.0    87.8    61.6    36.2    23.0     3.6     2.0     3.0     1.8     1.7     2.8     0.1     0.1     0.0     0.8     0.1     0.1     0.1     0.3     0.5     1.2     0.0     0.0     0.0     0.3     0.0     0.0     0.0     0.1     0.1
 2011 186    28    0.10    0.06     574    0.50    14.1   0.179   0.014   0.321     5.1     3.6   18489     4.4     558    3.19    0.56    1.18     2.4     0.0     0.0     0.0     1.0     0.1     0.1     0.1     0.2     0.5   336.7    88.0    61.5    36.2    23.1     3.7     2.0     2.7     1.8     1.8     2.0     0.1     0.1     0.0     0.7     0.0     0.1     0.1     0.2     0.4     0.7     0.0     0.0     0.0     0.3     0.0     0.0     0.0     0.0     0.1
 2011 187    29    0.10    0.07     592    0.50    14.7   0.181   0.015   0.321     3.7     3.2   18026     2.0     559    1.54    0.56    0.47     0.3     0.0     0.0     0.0     0.9     0.0     0.1     0.1     0.2     0.4   337.7    88.3    61.6    36.4    23.3     3.8     2.1     2.5     1.8     1.9     0.6     0.1     0.1     0.0     0.7     0.0     0.1     0.1     0.1     0.3     0.1     0.0     0.0     0.0     0.2     0.0     0.0     0.0     0.0     0.1
 2011 188    30    0.10    0.07     609    0.50    17.8   0.182   0.018   0.321     3.5     3.5   17353     1.4    3093    1.13    3.09    0.32     0.0     0.0     0.0     0.0     0.9     0.0     0.1     0.1     0.1     0.3  2873.0    87.5    61.0    36.2    23.3     3.9     2.2     2.3     1.9     2.0     0.3     0.1     0.1     0.0     0.7     0.0     0.1     0.1     0.1     0.2     0.0     0.0     0.0     0.0     0.2     0.0     0.0     0.0     0.0     0.0
 2011 189    31    0.11    0.08     626    0.50    21.5   0.183   0.022   0.322     6.1     4.0   16536     1.2    3772    0.95    3.77    0.27     0.0     0.0     0.0     0.0     0.8     0.0     0.1     0.1     0.1     0.2  3555.1    85.6    59.9    35.7    23.1     3.9     2.3     2.2     1.9     2.1     2.9     0.1     0.1     0.0     0.6     0.0     0.0     0.1     0.1     0.1     0.0     0.0     0.0     0.0     0.2     0.0     0.0     0.0     0.0     0.0
 2011 190    32    0.12    0.08     642    0.51    25.2   0.184   0.025   0.322     6.8     4.4   15785     1.1    3639    0.82    3.64    0.23     0.0     0.0     0.0     0.0     0.7     0.0     0.0     0.1     0.1     0.1  3425.4    83.8    58.9    35.2    22.9     4.0     2.3     2.2     1.9     2.1     3.6     0.1     0.1     0.0     0.6     0.0     0.0     0.1     0.1     0.1     0.0     0.0     0.0     0.0     0.2     0.0     0.0     0.0     0.0     0.0
 2011 191    33    0.12    0.09     656    0.51    28.2   0.184   0.028   0.322     6.6     5.0   14444     0.9    3054    0.73    3.05    0.20     0.0     0.0     0.0     0.0     0.7     0.0     0.0     0.1     0.1     0.1  2853.6    78.2    55.3    33.3    21.8     3.9     2.3     2.1     1.9     2.0     3.4     0.1     0.1     0.0     0.5     0.0     0.0     0.1     0.1     0.1     0.0     0.0     0.0     0.0     0.2     0.0     0.0     0.0     0.0     0.0
 2011 192    34    0.13    0.09     669    0.51    30.7   0.185   0.031   0.322     6.1     5.5   13100     0.8    2454    0.62    2.45    0.16     0.0     0.0     0.0     0.0     0.6     0.0     0.0     0.1     0.0     0.0  2266.3    72.5    51.6    31.2    20.6     3.7     2.2     2.0     1.9     2.0     2.9     0.1     0.1     0.0     0.5     0.0     0.0     0.0     0.0     0.0     0.0     0.0     0.0     0.0     0.1     0.0     0.0     0.0     0.0     0.0
 2011 193    35    0.14    0.10     681    0.51    32.7   0.185   0.033   0.322     5.5     6.0   12225     0.7    2010    0.54    2.01    0.12     0.0     0.0     0.0     0.0     0.5     0.0     0.0     0.0     0.0     0.0  1829.5    69.0    49.4    30.1    20.0     3.7     2.2     1.9     1.9     2.0     2.3     0.1     0.1     0.0     0.4     0.0     0.0     0.0     0.0     0.0     0.0     0.0     0.0     0.0     0.1     0.0     0.0     0.0     0.0     0.0
 2011 194    36    0.14    0.10     693    0.51    34.4   0.186   0.034   0.323     5.1     6.6   11640     0.6    1674    0.47    1.67    0.10     0.0     0.0     0.0     0.0     0.5     0.0     0.0     0.0     0.0     0.0  1497.4    67.1    48.3    29.6    19.8     3.7     2.2     2.0     1.9     2.0     1.8     0.1     0.0     0.0     0.4     0.0     0.0     0.0     0.0     0.0     0.0     0.0     0.0     0.0     0.1     0.0     0.0     0.0     0.0     0.0
 2011 195    37    0.15    0.11     704    0.51    35.8   0.186   0.036   0.323     4.8     7.1   11269     0.5    1412    0.43    1.41    0.09     0.0     0.0     0.0     0.0     0.4     0.0     0.0     0.0     0.0     0.0  1236.9    66.2    47.9    29.4    19.8     3.7     2.2     2.0     2.0     2.0     1.5     0.1     0.0     0.0     0.4     0.0     0.0     0.0     0.0     0.0     0.0     0.0     0.0     0.0     0.1     0.0     0.0     0.0     0.0     0.0
 2011 196    38    0.15    0.12     715    0.51    37.0   0.187   0.037   0.323     4.5     7.7   11225     0.5    1230    0.39    1.23    0.08     0.0     0.0     0.0     0.0     0.4     0.0     0.0     0.0     0.0     0.0  1050.2    67.3    49.0    30.2    20.4     3.9     2.3     2.1     2.0     2.1     1.2     0.1     0.0     0.0     0.3     0.0     0.0     0.0     0.0     0.0     0.0     0.0     0.0     0.0     0.1     0.0     0.0     0.0     0.0     0.0
 2011 197    39    0.15    0.13     727    0.51    38.0   0.187   0.038   0.323     4.3     8.1   11053     0.5    1014    0.39    1.01    0.08     0.0     0.0     0.0     0.0     0.4     0.0     0.0     0.0     0.0     0.0   838.3    65.3    47.9    29.6    20.2     3.9     2.4     2.1     2.1     2.2     1.1     0.1     0.0     0.0     0.3     0.0     0.0     0.0     0.0     0.0     0.0     0.0     0.0     0.0     0.1     0.0     0.0     0.0     0.0     0.0
 2011 198    40    0.26    0.15     738    0.63    38.4   0.287   0.038   0.344   102.5    27.9   11229   120.4     408   99.51    0.41   20.94   119.7     0.3     0.0     0.0     0.4     0.0     0.0     0.0     0.0     0.0   239.7    61.9    45.7    28.5    19.5     3.8     2.3     2.1     2.1     2.2    99.7     0.3     0.0     0.0     0.3     0.0     0.0     0.0     0.0     0.0    20.8     0.0     0.0     0.0     0.1     0.0     0.0     0.0     0.0     0.0
 2011 199    41    0.32    0.17     749    0.71    38.9   0.352   0.039   0.356    65.6    19.0   11479    77.6     449   64.87    0.45   12.72    74.9     2.3     0.0     0.0     0.3     0.0     0.0     0.0     0.0     0.0   290.5    54.0    44.9    28.0    19.3     3.8     2.3     2.1     2.1     2.2    62.7     2.1     0.0     0.0     0.3     0.0     0.0     0.0     0.0     0.0    12.4     0.3     0.0     0.0     0.1     0.0     0.0     0.0     0.0     0.0
 2011 200    42    0.36    0.19     761    0.75    39.4   0.389   0.039   0.363    38.4    13.0   12222    44.5     529   37.83    0.53    6.63    41.2     2.9     0.0     0.0     0.3     0.0     0.0     0.0     0.0     0.0   370.1    53.5    45.4    27.9    19.3     3.8     2.4     2.1     2.1     2.2    35.3     2.5     0.0     0.0     0.3     0.0     0.0     0.0     0.0     0.0     6.2     0.4     0.0     0.0     0.0     0.0     0.0     0.0     0.0     0.0
 2011 201    43    0.39    0.20     774    0.78    40.0   0.412   0.040   0.367    25.2    10.9   12531    26.8     561   23.12    0.56    3.65    24.7     1.7     0.0     0.0     0.3     0.0     0.0     0.0     0.0     0.0   400.6    57.6    44.8    26.7    18.6     3.7     2.3     2.0     2.1     2.1    21.7     1.6     0.0     0.0     0.3     0.0     0.0     0.0     0.0     0.0     3.4     0.2     0.0     0.0     0.0     0.0     0.0     0.0     0.0     0.0
 2011 202    44    0.40    0.21     787    0.80    40.5   0.428   0.041   0.369    17.6     9.8   12923    17.5     569   15.29    0.57    2.25    15.6     1.6     0.0     0.0     0.3     0.0     0.0     0.0     0.0     0.0   404.8    59.4    47.4    26.7    18.6     3.7     2.3     2.1     2.1     2.2    14.0     1.5     0.1     0.0     0.3     0.0     0.0     0.0     0.0     0.0     2.0     0.2     0.0     0.0     0.0     0.0     0.0     0.0     0.0     0.0
 2011 203    45    0.41    0.22     801    0.81    41.1   0.436   0.041   0.370    11.0     9.2   13965     9.1     598    8.01    0.60    1.10     7.8     1.0     0.0     0.0     0.3     0.0     0.0     0.0     0.0     0.0   418.8    67.0    52.2    27.8    19.5     3.9     2.5     2.2     2.2     2.3     7.2     0.9     0.1     0.0     0.2     0.0     0.0     0.0     0.0     0.0     0.9     0.1     0.0     0.0     0.0     0.0     0.0     0.0     0.0     0.0
 2011 204    46    0.42    0.22     815    0.81    41.7   0.439   0.042   0.370     6.5     8.8   14200     3.6     597    3.15    0.60    0.41     2.6     0.6     0.0     0.0     0.2     0.0     0.0     0.0     0.0     0.0   407.6    71.7    55.3    28.7    19.8     4.0     2.5     2.2     2.2     2.3     2.7     0.6     0.1     0.0     0.2     0.0     0.0     0.0     0.0     0.0     0.3     0.1     0.0     0.0     0.0     0.0     0.0     0.0     0.0     0.0
 2011 205    47    0.43    0.23     829    0.81    42.3   0.439   0.042   0.371     4.1     8.6   13547     0.6     552    0.53    0.55    0.07     0.0     0.3     0.0     0.0     0.2     0.0     0.0     0.0     0.0     0.0   359.0    75.0    56.5    28.8    19.6     4.0     2.5     2.3     2.2     2.4     0.4     0.4     0.1     0.0     0.2     0.0     0.0     0.0     0.0     0.0     0.0     0.0     0.0     0.0     0.0     0.0     0.0     0.0     0.0     0.0
 2011 206    48    0.43    0.24     841    0.81    42.8   0.440   0.043   0.371     3.9     8.6   12635     0.4     528    0.34    0.53    0.05     0.0     0.1     0.0     0.0     0.2     0.0     0.0     0.0     0.0     0.0   329.8    75.9    58.6    29.5    19.9     4.1     2.6     2.3     2.3     2.4     0.4     0.2     0.1     0.0     0.2     0.0     0.0     0.0     0.0     0.0     0.0     0.0     0.0     0.0     0.0     0.0     0.0     0.0     0.0     0.0
 2011 207    49    0.43    0.25     853    0.81    43.3   0.440   0.043   0.371     3.8     8.5   11831     0.2     509    0.22    0.51    0.03     0.0     0.0     0.0     0.0     0.2     0.0     0.0     0.0     0.0     0.0   305.0    77.5    61.2    30.4    20.4     4.2     2.7     2.4     2.4     2.5     0.3     0.1     0.1     0.0     0.2     0.0     0.0     0.0     0.0     0.0     0.0     0.0     0.0     0.0     0.0     0.0     0.0     0.0     0.0     0.0
 2011 208    50    0.44    0.26     864    0.81    43.8   0.440   0.044   0.371     3.6     8.3   10876     0.2     480    0.22    0.48    0.03     0.0     0.0     0.0     0.0     0.2     0.0     0.0     0.0     0.0     0.0   274.1    77.3    62.4    30.8    20.6     4.3     2.7     2.4     2.4     2.5     0.3     0.1     0.1     0.0     0.2     0.0     0.0     0.0     0.0     0.0     0.0     0.0     0.0     0.0     0.0     0.0     0.0     0.0     0.0     0.0
 2011 209    51    0.44    0.27     874    0.81    44.2   0.440   0.044   0.371     3.5     8.2    9941     0.2     447    0.22    0.45    0.03     0.0     0.0     0.0     0.0     0.2     0.0     0.0     0.0     0.0     0.0   242.1    76.2    62.9    30.9    20.7     4.4     2.8     2.5     2.4     2.6     0.3     0.1     0.1     0.0     0.2     0.0     0.0     0.0     0.0     0.0     0.0     0.0     0.0     0.0     0.0     0.0     0.0     0.0     0.0     0.0
 2011 210    52    0.44    0.27     883    0.81    44.7   0.441   0.045   0.371     3.3     8.0    9007     0.2     412    0.21    0.41    0.03     0.0     0.0     0.0     0.0     0.2     0.0     0.0     0.0     0.0     0.0   210.1    73.9    62.5    30.7    20.5     4.4     2.8     2.5     2.4     2.6     0.2     0.1     0.1     0.0     0.2     0.0     0.0     0.0     0.0     0.0     0.0     0.0     0.0     0.0     0.0     0.0     0.0     0.0     0.0     0.0
 2011 211    53    0.45    0.28     891    0.81    45.0   0.441   0.045   0.371     3.2     7.7    8188     0.2     381    0.21    0.38    0.03     0.0     0.0     0.0     0.0     0.2     0.0     0.0     0.0     0.0     0.0   181.8    71.5    61.9    30.5    20.4     4.4     2.8     2.5     2.4     2.6     0.2     0.1     0.1     0.0     0.2     0.0     0.0     0.0     0.0     0.0     0.0     0.0     0.0     0.0     0.0     0.0     0.0     0.0     0.0     0.0
 2011 212    54    0.45    0.29     899    0.81    45.4   0.441   0.045   0.371     3.1     7.4    7437     0.2     351    0.20    0.35    0.03     0.0     0.0     0.0     0.0     0.2     0.0     0.0     0.0     0.0     0.0   155.9    68.8    61.2    30.3    20.3     4.4     2.8     2.5     2.4     2.6     0.2     0.1     0.1     0.0     0.2     0.0     0.0     0.0     0.0     0.0     0.0     0.0     0.0     0.0     0.0     0.0     0.0     0.0     0.0     0.0
 2011 213    55    0.45    0.30     905    0.81    45.7   0.441   0.046   0.371     2.9     7.1    6736     0.2     314    0.19    0.31    0.03     0.0     0.0     0.0     0.0     0.2     0.0     0.0     0.0     0.0     0.0   122.9    65.8    60.3    30.0    20.1     4.4     2.8     2.5     2.4     2.6     0.2     0.1     0.1     0.0     0.2     0.0     0.0     0.0     0.0     0.0     0.0     0.0     0.0     0.0     0.0     0.0     0.0     0.0     0.0     0.0
 2011 214    56    0.46    0.30     911    0.81    46.0   0.441   0.046   0.371     2.8     6.8    6165     0.2     288    0.18    0.29    0.03     0.0     0.0     0.0     0.0     0.2     0.0     0.0     0.0     0.0     0.0    99.6    63.5    60.0    30.0    20.1     4.4     2.8     2.5     2.5     2.6     0.1     0.1     0.1     0.0     0.2     0.0     0.0     0.0     0.0     0.0     0.0     0.0     0.0     0.0     0.0     0.0     0.0     0.0     0.0     0.0
 2011 215    57    0.46    0.31     917    0.81    46.3   0.442   0.046   0.371     2.6     6.4    5781     0.2     274    0.18    0.27    0.02     0.0     0.0     0.0     0.0     0.2     0.0     0.0     0.0     0.0     0.0    83.4    62.7    61.3    30.8    20.7     4.5     2.9     2.6     2.5     2.6     0.1     0.1     0.1     0.0     0.2     0.0     0.0     0.0     0.0     0.0     0.0     0.0     0.0     0.0     0.0     0.0     0.0     0.0     0.0     0.0
 2011 216    58    0.46    0.32     923    0.81    46.5   0.442   0.047   0.371     2.5     6.0    5379     0.2     260    0.18    0.26    0.02     0.0     0.0     0.0     0.0     0.2     0.0     0.0     0.0     0.0     0.0    68.9    61.2    62.2    31.4    21.1     4.7     3.0     2.7     2.6     2.7     0.1     0.1     0.1     0.0     0.2     0.0     0.0     0.0     0.0     0.0     0.0     0.0     0.0     0.0     0.0     0.0     0.0     0.0     0.0     0.0
 2011 217    59    0.46    0.32     928    0.81    46.8   0.442   0.047   0.371     2.4     5.6    4957     0.2     246    0.18    0.25    0.02     0.0     0.0     0.0     0.0     0.2     0.0     0.0     0.0     0.0     0.0    55.8    58.9    62.5    31.8    21.4     4.7     3.0     2.7     2.6     2.7     0.1     0.1     0.1     0.0     0.2     0.0     0.0     0.0     0.0     0.0     0.0     0.0     0.0     0.0     0.0     0.0     0.0     0.0     0.0     0.0
 2011 218    60    0.47    0.33     932    0.81    47.0   0.442   0.047   0.371     2.3     5.1    4734     0.2     227    0.17    0.23    0.02     0.0     0.0     0.0     0.0     0.2     0.0     0.0     0.0     0.0     0.0    42.9    54.6    60.8    31.3    21.1     4.7     3.0     2.7     2.6     2.7     0.1     0.1     0.1     0.0     0.2     0.0     0.0     0.0     0.0     0.0     0.0     0.0     0.0     0.0     0.0     0.0     0.0     0.0     0.0     0.0