*SOILS: General DSSAT Soil Input File

*XXXX100001  -99         C       100 Canada
@SITE        COUNTRY          LAT     LONG SCS FAMILY
 Unknown Canada                -99     
@ SCOM  SALB  SLU1  SLDR  SLRO  SLNF  SLPF  SMHB  SMPX  SMKE
    BL   .18     6    .3    73     1     1  IB00  IB00  IB00
@  SLB  SLMH  SLLL  SDUL  SSAT  SRGF  SSKS  SBDM  SLOC  SLCL  SLSI  SLCF  SLNI  SLHW  SLHB  SCEC  SADC
     5   -99   .20   .36   .55     1    .6  1.33   4.0    31    49     0   .40   6.6   -99    71   -99
    10   -99   .20   .36   .55     1    .6  1.33   3.7    31    49     0   .37   6.6   -99    71   -99
    20   -99   .20   .36   .55    .9    .6  1.33   3.0    31    49     0   .30   6.6   -99    71   -99
    30   -99   .20   .36   .55    .8    .6  1.33   2.4    31    49     0   .24   6.6   -99    71   -99
    60   -99   .22   .37   .49    .6    .2  1.43   1.0    38    34     0   .10   6.6   -99    71   -99
    90   -99   .22   .36   .46    .4    .3  1.34   0.5    40    34     0   .05   6.6   -99    71   -99

*XXXX100002  -99         C       100 France
@SITE        COUNTRY          LAT     LONG SCS FAMILY
 Unknown France        -99     -99 
@ SCOM  SALB  SLU1  SLDR  SLRO  SLNF  SLPF  SMHB  SMPX  SMKE
    BL   .12     6    .3    73     1     1  IB00  IB00  IB00
@  SLB  SLMH  SLLL  SDUL  SSAT  SRGF  SSKS  SBDM  SLOC  SLCL  SLSI  SLCF  SLNI  SLHW  SLHB  SCEC  SADC
     5   -99   .13   .35   .45     1   3.3  1.34   1.8    19    71     0   .18   7.3   -99    71   -99
    10   -99   .13   .35   .45     1   3.3  1.34   1.5    19    71     0   .15   7.2   -99    71   -99
    20   -99   .13   .35   .45    .9   3.3  1.40   1.4    19    71     0   .14   7.5   -99    71   -99
    28   -99   .13   .30   .45    .8   3.3  1.46   1.4    18    72     0   .14   7.9   -99    71   -99
    35   -99   .15   .33   .49    .6   3.3  1.46   1.3    18    72     0   .13   8.1   -99    71   -99
    42   -99   .19   .30   .45    .4   3.3  1.49   0.9    20    71     0   .09   8.2   -99    71   -99
    64   -99   .19   .30   .45    .3   3.3  1.49   0.4    27    71     0   .04   8.3   -99    65   -99
   100   -99   .19   .30   .45    .1   3.3  1.49   0.1    27    71     0   .01   8.3   -99    65   -99

*XXXX100003  -99         C        95 India
@SITE        COUNTRY          LAT     LONG SCS FAMILY
 Unknown India
@ SCOM  SALB  SLU1  SLDR  SLRO  SLNF  SLPF  SMHB  SMPX  SMKE
    BL   .12     6    .3    73     1     1  IB00  IB00  IB00
@  SLB  SLMH  SLLL  SDUL  SSAT  SRGF  SSKS  SBDM  SLOC  SLCL  SLSI  SLCF  SLNI  SLHW  SLHB  SCEC  SADC
     5   -99   .07   .18   .38     1   0.5  1.38   0.4    21    33     0   .07   8.0   -99    73   -99
    10   -99   .07   .18   .38     1   0.5  1.38   0.4    21    33     0   .03   8.0   -99    73   -99
    20   -99   .07   .20   .40    .9   0.5  1.43   0.4    30    40     0   .03   8.0   -99    73   -99
    30   -99   .07   .20   .40    .8   0.5  1.43   0.2    30    40     0   .03   8.0   -99    73   -99
    60   -99   .07   .22   .42    .6   0.5  1.45   0.1    35    35     0   .02   8.0   -99    73   -99
    95   -99   .07   .22   .42    .4   0.5  1.45   0.1    35    35     0   .01   8.0   -99    73   -99 

*XXXX100004  -99         C       100 Kingaroy
@SITE        COUNTRY          LAT     LONG SCS FAMILY
 Kingaroy Australia           -99     -99  Brown Ferrasol
@ SCOM  SALB  SLU1  SLDR  SLRO  SLNF  SLPF  SMHB  SMPX  SMKE DIFAC
    BL   .12     6    .3    73     1     1  IB00  IB00  IB00  0.45
@  SLB  SLMH  SLLL  SDUL  SSAT  SRGF  SSKS  SBDM  SLOC  SLCL  SLSI  SLCF  SLNI  SLHW  SLHB  SCEC  SADC   !  SSKS
     5   -99   .18   .31   .49     1    .1  1.23   1.5    50    17    39   .15   7.3   -99    71   -99   !    .1
    10   -99   .18   .31   .49     1    .1  1.23   1.5    50    17    39   .15   7.2   -99    71   -99   !    .1
    20   -99   .19   .29   .51    .9    .1  1.30   1.4    55    14    39   .14   7.5   -99    71   -99   !    .1
    30   -99   .20   .28   .51    .8    .1  1.33   1.1    60    10    39   .11   7.9   -99    71   -99   !    .1
    40   -99   .21   .32   .52    .6    .1  1.33    .5    60    10    39   .05   8.1   -99    71   -99   !    .1
    50   -99   .21   .29   .55    .4   .05  1.33    .3    60    10    39   .03   8.2   -99    71   -99   !   .05
    60   -99   .22   .29   .55    .3   .03  1.33    .1    60    10    39   .01   8.3   -99    65   -99   !   .03
    70   -99   .22   .29   .55   .06   .01  1.33    .1    60    10    39   .01   8.5   -99    65   -99   !   .01
    80   -99   .22   .29   .55   .03   .01  1.33    .1    60    10    39   .01   8.5   -99    65   -99   !   .01
    90   -99   .22   .29   .55   .01   .01  1.31    .1    28    33    39   .01   8.5   -99    65   -99   !   .01

*XXXX100005  -99         C       100 Brazil
@SITE        COUNTRY          LAT     LONG SCS FAMILY
 Brazil                       -99     -99  
@ SCOM  SALB  SLU1  SLDR  SLRO  SLNF  SLPF  SMHB  SMPX  SMKE
    BL   .12     6    .5    73     1     1  IB00  IB00  IB00
@  SLB  SLMH  SLLL  SDUL  SSAT  SRGF  SSKS  SBDM  SLOC  SLCL  SLSI  SLCF  SLNI  SLHW  SLHB  SCEC  SADC
     5   -99   .18   .31   .49     1    .4  1.38   2.5    19    36    45   .25   7.3   -99    71   -99
    10   -99   .18   .31   .49     1    .4  1.38   2.0    19    36    45   .20   7.2   -99    71   -99
    20   -99   .19   .29   .51    .9    .4  1.41   1.7    21    38    41   .14   7.5   -99    71   -99
    30   -99   .20   .28   .51    .8    .1  1.41   1.0    21    38    41   .10   7.9   -99    71   -99
    60   -99   .22   .29   .55    .3    .1  1.41    .5    40    18    41   .05   8.3   -99    65   -99
    90   -99   .22   .29   .55   .01    .1  1.41    .1    40    18    41   .01   8.5   -99    65   -99  