*EXP.DETAILS: ALTH5601BH BAHIA ON GREENVILLE FINE SANDY LOAM, 4 YR SEQ.

*GENERAL
@PEOPLE
-99
@ADDRESS
-99
@SITE
-99
@ PAREA  PRNO  PLEN  PLDR  PLSP  PLAY HAREA  HRNO  HLEN  HARM.........
    -99   -99   -99   -99   -99   -99   -99   -99   -99   -99

*TREATMENTS                        -------------FACTOR LEVELS------------
@N R O C TNAME.................... CU FL SA IC MP MI MF MR MC MT ME MH SM
 1 1 0 0 DRYLAND - 0 KG N/HA        1  1  0  1  1  0  0  0  0  0  0  1  1
 2 1 0 0 DRYLAND - 168 KG N/HA      1  1  0  1  1  0  1  0  0  0  0  1  1
 3 1 0 0 DRYLAND - 336 KG N/HA      1  1  0  1  1  0  2  0  0  0  0  1  1
 4 1 0 0 DRYLAND - 672 KG N/HA      1  1  0  1  1  0  3  0  0  0  0  1  1
 5 1 0 0 IRRIGATED - 0 KG N/HA      1  1  0  1  1  0  0  0  0  0  0  1  2
 6 1 0 0 IRRIGATED - 168 KG N/HA    1  1  0  1  1  0  1  0  0  0  0  1  2
 7 1 0 0 IRRIGATED - 336 KG N/HA    1  1  0  1  1  0  2  0  0  0  0  1  2
 8 1 0 0 IRRIGATED - 672 KG N/HA    1  1  0  1  1  0  3  0  0  0  0  1  2

*CULTIVARS
@C CR INGENO CNAME
 1 BH UF0001 PENSACOLA

*FIELDS
@L ID_FIELD WSTA....  FLSA  FLOB  FLDT  FLDD  FLDS  FLST SLTX  SLDP  ID_SOIL    FLNAME
 1 ALTH0001 ALCL       -99     0 DR000     0     0 00000 -99    180  UFWH940005 -99
@L ...........XCRD ...........YCRD .....ELEV .............AREA .SLEN .FLWR .SLAS FLHST FHDUR
 1               0               0         0                 0     0     0     0   -99   -99

*INITIAL CONDITIONS
@C   PCR ICDAT  ICRT  ICND  ICRN  ICRE  ICWD ICRES ICREN ICREP ICRIP ICRID ICNAME
 1    SB 56070  1200     0     1     1   -99  1000    .8     0   100    15 -99
@C  ICBL  SH2O  SNH4  SNO3
 1    13  .087    .3    .8
 1    28  .219    .3    .8
 1   139  .299    .2    .7
 1   189  .299    .2    .5

*PLANTING DETAILS
@P PDATE EDATE  PPOP  PPOE  PLME  PLDS  PLRS  PLRD  PLDP  PLWT  PAGE  PENV  PLPH  SPRL                        PLNAME
 1 56070   -99   162   162     S     R    10     0   5.5   -99   -99   -99   -99     0                        -99

*FERTILIZERS (INORGANIC)
@F FDATE  FMCD  FACD  FDEP  FAMN  FAMP  FAMK  FAMC  FAMO  FOCD FERNAME
 1 56075 FE001 AP001     0    34   -99   -99   -99   -99   -99 -99
 1 56153 FE001 AP001     0    34   -99   -99   -99   -99   -99 -99
 1 56183 FE001 AP001     0    34   -99   -99   -99   -99   -99 -99
 1 56214 FE001 AP001     0    34   -99   -99   -99   -99   -99 -99
 1 56245 FE001 AP001     0    34   -99   -99   -99   -99   -99 -99
 1 57075 FE001 AP001     0    34   -99   -99   -99   -99   -99 -99
 1 57153 FE001 AP001     0    34   -99   -99   -99   -99   -99 -99
 1 57183 FE001 AP001     0    34   -99   -99   -99   -99   -99 -99
 1 57214 FE001 AP001     0    34   -99   -99   -99   -99   -99 -99
 1 57245 FE001 AP001     0    34   -99   -99   -99   -99   -99 -99
 1 58075 FE001 AP001     0    34   -99   -99   -99   -99   -99 -99
 1 58153 FE001 AP001     0    34   -99   -99   -99   -99   -99 -99
 1 58183 FE001 AP001     0    34   -99   -99   -99   -99   -99 -99
 1 58214 FE001 AP001     0    34   -99   -99   -99   -99   -99 -99
 1 58245 FE001 AP001     0    34   -99   -99   -99   -99   -99 -99
 1 59075 FE001 AP001     0    34   -99   -99   -99   -99   -99 -99
 1 59153 FE001 AP001     0    34   -99   -99   -99   -99   -99 -99
 1 59183 FE001 AP001     0    34   -99   -99   -99   -99   -99 -99
 1 59214 FE001 AP001     0    34   -99   -99   -99   -99   -99 -99
 1 59245 FE001 AP001     0    34   -99   -99   -99   -99   -99 -99
 2 56075 FE001 AP001     0    67   -99   -99   -99   -99   -99 -99
 2 56153 FE001 AP001     0    67   -99   -99   -99   -99   -99 -99
 2 56183 FE001 AP001     0    67   -99   -99   -99   -99   -99 -99
 2 56214 FE001 AP001     0    67   -99   -99   -99   -99   -99 -99
 2 56245 FE001 AP001     0    67   -99   -99   -99   -99   -99 -99
 2 57075 FE001 AP001     0    67   -99   -99   -99   -99   -99 -99
 2 57153 FE001 AP001     0    67   -99   -99   -99   -99   -99 -99
 2 57183 FE001 AP001     0    67   -99   -99   -99   -99   -99 -99
 2 57214 FE001 AP001     0    67   -99   -99   -99   -99   -99 -99
 2 57245 FE001 AP001     0    67   -99   -99   -99   -99   -99 -99
 2 58075 FE001 AP001     0    67   -99   -99   -99   -99   -99 -99
 2 58153 FE001 AP001     0    67   -99   -99   -99   -99   -99 -99
 2 58183 FE001 AP001     0    67   -99   -99   -99   -99   -99 -99
 2 58214 FE001 AP001     0    67   -99   -99   -99   -99   -99 -99
 2 58245 FE001 AP001     0    67   -99   -99   -99   -99   -99 -99
 2 59075 FE001 AP001     0    67   -99   -99   -99   -99   -99 -99
 2 59153 FE001 AP001     0    67   -99   -99   -99   -99   -99 -99
 2 59183 FE001 AP001     0    67   -99   -99   -99   -99   -99 -99
 2 59214 FE001 AP001     0    67   -99   -99   -99   -99   -99 -99
 2 59245 FE001 AP001     0    67   -99   -99   -99   -99   -99 -99
 3 56075 FE001 AP001     0   134   -99   -99   -99   -99   -99 -99
 3 56153 FE001 AP001     0   134   -99   -99   -99   -99   -99 -99
 3 56183 FE001 AP001     0   134   -99   -99   -99   -99   -99 -99
 3 56214 FE001 AP001     0   134   -99   -99   -99   -99   -99 -99
 3 56245 FE001 AP001     0   134   -99   -99   -99   -99   -99 -99
 3 57075 FE001 AP001     0   134   -99   -99   -99   -99   -99 -99
 3 57153 FE001 AP001     0   134   -99   -99   -99   -99   -99 -99
 3 57183 FE001 AP001     0   134   -99   -99   -99   -99   -99 -99
 3 57214 FE001 AP001     0   134   -99   -99   -99   -99   -99 -99
 3 57245 FE001 AP001     0   134   -99   -99   -99   -99   -99 -99
 3 58075 FE001 AP001     0   134   -99   -99   -99   -99   -99 -99
 3 58153 FE001 AP001     0   134   -99   -99   -99   -99   -99 -99
 3 58183 FE001 AP001     0   134   -99   -99   -99   -99   -99 -99
 3 58214 FE001 AP001     0   134   -99   -99   -99   -99   -99 -99
 3 58245 FE001 AP001     0   134   -99   -99   -99   -99   -99 -99
 3 59075 FE001 AP001     0   134   -99   -99   -99   -99   -99 -99
 3 59153 FE001 AP001     0   134   -99   -99   -99   -99   -99 -99
 3 59183 FE001 AP001     0   134   -99   -99   -99   -99   -99 -99
 3 59214 FE001 AP001     0   134   -99   -99   -99   -99   -99 -99
 3 59245 FE001 AP001     0   134   -99   -99   -99   -99   -99 -99

*HARVEST DETAILS
@H HDATE  HSTG  HCOM HSIZE   HPC  HBPC HNAME
 1 59280 GS000     C   -99   100     0 

*SIMULATION CONTROLS
@N GENERAL     NYERS NREPS START SDATE RSEED SNAME.................... SMODEL
 1 GE              1     1     S 56039  2150 BAHIA :
@N OPTIONS     WATER NITRO SYMBI PHOSP POTAS DISES  CHEM  TILL   CO2
 1 OP              Y     Y     N     N     N     Y     N     N     M
@N METHODS     WTHER INCON LIGHT EVAPO INFIL PHOTO HYDRO NSWIT MESOM MESEV MESOL
 1 ME              M     M     E     R     S     C     R     1     G     S     2
@N MANAGEMENT  PLANT IRRIG FERTI RESID HARVS
 1 MA              R     N     R     N     R
@N OUTPUTS     FNAME OVVEW SUMRY FROPT GROUT CAOUT WAOUT NIOUT MIOUT DIOUT VBOSE CHOUT OPOUT
 1 OU              N     Y     Y     7     Y     Y     Y     Y     N     Y     Y     N     N

@  AUTOMATIC MANAGEMENT
@N PLANTING    PFRST PLAST PH2OL PH2OU PH2OD PSTMX PSTMN
 1 PL          56063 56077    40   100    30    40    10
@N IRRIGATION  IMDEP ITHRL ITHRU IROFF IMETH IRAMT IREFF
 1 IR             30    50   100 IB001 IB001    10     0
@N NITROGEN    NMDEP NMTHR NAMNT NCODE NAOFF
 1 NI             30    50    25 IB001 IB001
@N RESIDUES    RIPCN RTIME RIDEP
 1 RE            100     1    20
@N HARVEST     HFRST HLAST HPCNP HPCNR
 1 HA              0 57069   100     0

@N GENERAL     NYERS NREPS START SDATE RSEED SNAME.................... SMODEL
 2 GE              1     1     S 56039  2150 BAHIA
@N OPTIONS     WATER NITRO SYMBI PHOSP POTAS DISES  CHEM  TILL   CO2
 2 OP              Y     Y     N     N     N     Y     N     Y     M
@N METHODS     WTHER INCON LIGHT EVAPO INFIL PHOTO HYDRO NSWIT MESOM MESEV MESOL
 2 ME              M     M     E     R     S     C     R     1     G     S     2
@N MANAGEMENT  PLANT IRRIG FERTI RESID HARVS
 2 MA              R     A     R     N     R
@N OUTPUTS     FNAME OVVEW SUMRY FROPT GROUT CAOUT WAOUT NIOUT MIOUT DIOUT VBOSE CHOUT OPOUT
 2 OU              N     N     Y     7     Y     Y     Y     Y     N     Y     Y     N     N

@  AUTOMATIC MANAGEMENT
@N PLANTING    PFRST PLAST PH2OL PH2OU PH2OD PSTMX PSTMN
 2 PL          56063 56077    40   100    30    40    10
@N IRRIGATION  IMDEP ITHRL ITHRU IROFF IMETH IRAMT IREFF
 2 IR             60    30   100 IB001 IB001    10     0
@N NITROGEN    NMDEP NMTHR NAMNT NCODE NAOFF
 2 NI             30    50    25 IB001 IB001
@N RESIDUES    RIPCN RTIME RIDEP
 2 RE            100     1    20
@N HARVEST     HFRST HLAST HPCNP HPCNR
 2 HA              0 57069   100     0



