*EXP.DETAILS: UFON9701BH BAHIAGRASS ON ONA, POMONA FINE SAND, 2 YR SEQ.

*GENERAL
@PEOPLE
P. MISLEVY, M.B. HALL, C. JOHNSON, S. RYMPH
@ADDRESS
Department of Agronomy, University of Florida, Gainesville, Florida, USA
@SITE
ONA REC, Ona, Florida
@ PAREA  PRNO  PLEN  PLDR  PLSP  PLAY HAREA  HRNO  HLEN  HARM.........
    -99   -99   -99   -99   -99   -99   -99   -99   -99   -99
@NOTES
Johnson, C.R., B.A. Reiling, P. Mislevy, and M.B. Hall. Effects of nitrogen fertilization on yield, digestibility, fiber, and protein fractions of tropical grasses. 2001. J. Anim. Sci. 79:2439-2448Johnson, C.R. 2001. Masters Thesis. University of Florida.This experiment file is an example of a multi-year forage experiment. The simulation runs continuously for 3 years. The first year (1996) is used to set the initial conditions for the beginning of the experiment (1997). Fertilization andharvest schedules that are typical of the area are used for the first year to lleave typical levels of soil nturients and water for the beginning of 1997. Theharvest schedule is set in the G0T file, see details at the top of thatThis model runs best when "P" or Parton method of organic matter mineralizationis used, especially if there are treatments with little or no supplemental N. TTo specify the Parton method in the BHX file, use XBuild and select "SimulationOptions" from the menu bar, then click on "Methods" tab and selectTo start with an established stand, use the "transplant" option under "Management"-"Planting". Select "Transplant", enter date of planting, and click on the Transplant tab. Enter 9999 kg/ha for the plant mass transplanted. This will start the simulation with 7000 kg/ha leaf+stem and 3000 kg/ha roots. Use the "MOW"option of the "Pest" routine to reduce the leaf+stem mass to a typical stubble//after harvest mass - see notes in UFON9701.G0T forIf there is little available data on initial soil water and N, start the simulation a year early to let the model establish these conditions for the period ofFall/Winter dormancy in bahiagrass is controlled, in part, by daylength. Currently the model does not allow daylength to affect dry matter partitioning duringthe vegetative stages. The best way to slow growth in the winter is to use thee "PRP" function in the "Pest" routine to lower photosynthetic rate over the winter - see notes in UFON9701.BHT forNote: When setting the Runoff Curve Number "SLRO" in the Soils file - NRCS loweris the curve number for soils underpasture or hay managementSoil Hydrologic Group A B C DPasture (good condition)  39 61 74 80Pasture (poor condition)   68 79 86 89Hay field/Meadow (good condition)  30  58  71  78

*TREATMENTS                        -------------FACTOR LEVELS------------
@N R O C TNAME.................... CU FL SA IC MP MI MF MR MC MT ME MH SM
 1 1 0 0 DRYLAND -    0 KG N/HA     1  1  0  1  1  0  1  0  0  0  0  1  1
 2 1 0 0 DRYLAND -   35 KG N/HA     1  1  0  1  1  0  2  0  0  0  0  1  1
 3 1 0 0 DRYLAND -   70 KG N/HA     1  1  0  1  1  0  3  0  0  0  0  1  1
 4 1 0 0 DRYLAND -  105 KG N/HA     1  1  0  1  1  0  4  0  0  0  0  1  1
 5 1 0 0 DRYLAND -  140 KG N/HA     1  1  0  1  1  0  5  0  0  0  0  1  1

*CULTIVARS
@C CR INGENO CNAME
 1 BH UF0001 PENSACOLA

*FIELDS
@L ID_FIELD WSTA....  FLSA  FLOB  FLDT  FLDD  FLDS  FLST SLTX  SLDP  ID_SOIL    FLNAME
 1 UFON0001 UFON         0     0 DR000     0     0 00000 FSA    203  UFON780006 -99
@L ...........XCRD ...........YCRD .....ELEV .............AREA .SLEN .FLWR .SLAS FLHST FHDUR
 1               0               0         0                 0     0     0     0   -99   -99

*INITIAL CONDITIONS
@C   PCR ICDAT  ICRT  ICND  ICRN  ICRE  ICWD ICRES ICREN ICREP ICRIP ICRID ICNAME
 1    G0 96001     0     0     0     0    25     0   .64     0   100    25 -99
@C  ICBL  SH2O  SNH4  SNO3
 1     8  .165    .5   1.3
 1    25  .135    .2    .3
 1    68  .048    .2    .1
 1    89  .099    .2    .6
 1   117  .084    .2    .3
 1   145  .124    .2    .3
 1   203  .212    .2    .1

*PLANTING DETAILS
@P PDATE EDATE  PPOP  PPOE  PLME  PLDS  PLRS  PLRD  PLDP  PLWT  PAGE  PENV  PLPH  SPRL                        PLNAME
 1 96061   -99   999   999     T     R     2     0     2  9999    90    15     1     0                        -99

*FERTILIZERS (INORGANIC)
@F FDATE  FMCD  FACD  FDEP  FAMN  FAMP  FAMK  FAMC  FAMO  FOCD FERNAME
 1 96126 FE001 AP001     0    78   -99   -99   -99   -99   -99 -99
 1 96155 FE001 AP001     0    78   -99   -99   -99   -99   -99 -99
 1 96183 FE001 AP001     0    78   -99   -99   -99   -99   -99 -99
 1 96211 FE001 AP001     0    78   -99   -99   -99   -99   -99 -99
 1 96239 FE001 AP001     0    78   -99   -99   -99   -99   -99 -99
 1 96267 FE001 AP001     0    78   -99   -99   -99   -99   -99 -99
 1 97125 FE001 AP001     0     0   -99   -99   -99   -99   -99 -99
 2 96126 FE001 AP001     0    78   -99   -99   -99   -99   -99 -99
 2 96155 FE001 AP001     0    78   -99   -99   -99   -99   -99 -99
 2 96183 FE001 AP001     0    78   -99   -99   -99   -99   -99 -99
 2 96211 FE001 AP001     0    78   -99   -99   -99   -99   -99 -99
 2 96239 FE001 AP001     0    78   -99   -99   -99   -99   -99 -99
 2 96267 FE001 AP001     0    78   -99   -99   -99   -99   -99 -99
 2 97125 FE001 AP001     0    39   -99   -99   -99   -99   -99 -99
 2 97154 FE001 AP001     0    39   -99   -99   -99   -99   -99 -99
 2 97182 FE001 AP001     0    39   -99   -99   -99   -99   -99 -99
 2 97210 FE001 AP001     0    39   -99   -99   -99   -99   -99 -99
 2 97238 FE001 AP001     0    39   -99   -99   -99   -99   -99 -99
 2 97266 FE001 AP001     0    39   -99   -99   -99   -99   -99 -99
 2 98125 FE001 AP001     0    39   -99   -99   -99   -99   -99 -99
 2 98154 FE001 AP001     0    39   -99   -99   -99   -99   -99 -99
 2 98182 FE001 AP001     0    39   -99   -99   -99   -99   -99 -99
 2 98210 FE001 AP001     0    39   -99   -99   -99   -99   -99 -99
 2 98238 FE001 AP001     0    39   -99   -99   -99   -99   -99 -99
 2 98266 FE001 AP001     0    39   -99   -99   -99   -99   -99 -99
 3 96126 FE001 AP001     0    78   -99   -99   -99   -99   -99 -99
 3 96155 FE001 AP001     0    78   -99   -99   -99   -99   -99 -99
 3 96183 FE001 AP001     0    78   -99   -99   -99   -99   -99 -99
 3 96211 FE001 AP001     0    78   -99   -99   -99   -99   -99 -99
 3 96239 FE001 AP001     0    78   -99   -99   -99   -99   -99 -99
 3 96267 FE001 AP001     0    78   -99   -99   -99   -99   -99 -99
 3 97125 FE001 AP001     0    78   -99   -99   -99   -99   -99 -99
 3 97154 FE001 AP001     0    78   -99   -99   -99   -99   -99 -99
 3 97182 FE001 AP001     0    78   -99   -99   -99   -99   -99 -99
 3 97210 FE001 AP001     0    78   -99   -99   -99   -99   -99 -99
 3 97238 FE001 AP001     0    78   -99   -99   -99   -99   -99 -99
 3 97266 FE001 AP001     0    78   -99   -99   -99   -99   -99 -99
 3 98125 FE001 AP001     0    78   -99   -99   -99   -99   -99 -99
 3 98154 FE001 AP001     0    78   -99   -99   -99   -99   -99 -99
 3 98182 FE001 AP001     0    78   -99   -99   -99   -99   -99 -99
 3 98210 FE001 AP001     0    78   -99   -99   -99   -99   -99 -99
 3 98238 FE001 AP001     0    78   -99   -99   -99   -99   -99 -99
 3 98266 FE001 AP001     0    78   -99   -99   -99   -99   -99 -99
 4 96126 FE001 AP001     0    78   -99   -99   -99   -99   -99 -99
 4 96155 FE001 AP001     0    78   -99   -99   -99   -99   -99 -99
 4 96183 FE001 AP001     0    78   -99   -99   -99   -99   -99 -99
 4 96211 FE001 AP001     0    78   -99   -99   -99   -99   -99 -99
 4 96239 FE001 AP001     0    78   -99   -99   -99   -99   -99 -99
 4 96267 FE001 AP001     0    78   -99   -99   -99   -99   -99 -99
 4 97125 FE001 AP001     0   117   -99   -99   -99   -99   -99 -99
 4 97154 FE001 AP001     0   117   -99   -99   -99   -99   -99 -99
 4 97182 FE001 AP001     0   117   -99   -99   -99   -99   -99 -99
 4 97210 FE001 AP001     0   117   -99   -99   -99   -99   -99 -99
 4 97238 FE001 AP001     0   117   -99   -99   -99   -99   -99 -99
 4 97266 FE001 AP001     0   117   -99   -99   -99   -99   -99 -99
 4 98125 FE001 AP001     0   117   -99   -99   -99   -99   -99 -99
 4 98154 FE001 AP001     0   117   -99   -99   -99   -99   -99 -99
 4 98182 FE001 AP001     0   117   -99   -99   -99   -99   -99 -99
 4 98210 FE001 AP001     0   117   -99   -99   -99   -99   -99 -99
 4 98238 FE001 AP001     0   117   -99   -99   -99   -99   -99 -99
 4 98266 FE001 AP001     0   117   -99   -99   -99   -99   -99 -99
 5 96126 FE001 AP001     0    78   -99   -99   -99   -99   -99 -99
 5 96155 FE001 AP001     0    78   -99   -99   -99   -99   -99 -99
 5 96183 FE001 AP001     0    78   -99   -99   -99   -99   -99 -99
 5 96211 FE001 AP001     0    78   -99   -99   -99   -99   -99 -99
 5 96239 FE001 AP001     0    78   -99   -99   -99   -99   -99 -99
 5 96267 FE001 AP001     0    78   -99   -99   -99   -99   -99 -99
 5 97125 FE001 AP001     0   156   -99   -99   -99   -99   -99 -99
 5 97154 FE001 AP001     0   156   -99   -99   -99   -99   -99 -99
 5 97182 FE001 AP001     0   156   -99   -99   -99   -99   -99 -99
 5 97210 FE001 AP001     0   156   -99   -99   -99   -99   -99 -99
 5 97238 FE001 AP001     0   156   -99   -99   -99   -99   -99 -99
 5 97266 FE001 AP001     0   156   -99   -99   -99   -99   -99 -99
 5 98125 FE001 AP001     0   156   -99   -99   -99   -99   -99 -99
 5 98154 FE001 AP001     0   156   -99   -99   -99   -99   -99 -99
 5 98182 FE001 AP001     0   156   -99   -99   -99   -99   -99 -99
 5 98210 FE001 AP001     0   156   -99   -99   -99   -99   -99 -99
 5 98238 FE001 AP001     0   156   -99   -99   -99   -99   -99 -99
 5 98266 FE001 AP001     0   156   -99   -99   -99   -99   -99 -99

*ENVIRONMENT MODIFICATIONS
@E ODATE EDAY  ERAD  EMAX  EMIN  ERAIN ECO2  EDEW  EWIND ENVNAME  
 1 96061 A   0 A   0 A   0 A   0 A 0.0 A   0 A   0 A   0 

*HARVEST DETAILS
@H HDATE  HSTG  HCOM HSIZE   HPC  HBPC HNAME
 1 98295 GS000     C   -99   100   100 

*SIMULATION CONTROLS
@N GENERAL     NYERS NREPS START SDATE RSEED SNAME.................... SMODEL
 1 GE              1     1     P 96061  2150 BAHIA
@N OPTIONS     WATER NITRO SYMBI PHOSP POTAS DISES  CHEM  TILL   CO2
 1 OP              Y     Y     N     N     N     Y     N     N     M
@N METHODS     WTHER INCON LIGHT EVAPO INFIL PHOTO HYDRO NSWIT MESOM MESEV MESOL
 1 ME              M     M     E     R     S     L     R     1     P     S     2
@N MANAGEMENT  PLANT IRRIG FERTI RESID HARVS
 1 MA              R     N     R     N     R
@N OUTPUTS     FNAME OVVEW SUMRY FROPT GROUT CAOUT WAOUT NIOUT MIOUT DIOUT VBOSE CHOUT OPOUT
 1 OU              N     Y     Y     1     Y     Y     Y     Y     N     Y     Y     N     N

@  AUTOMATIC MANAGEMENT
@N PLANTING    PFRST PLAST PH2OL PH2OU PH2OD PSTMX PSTMN
 1 PL          96061 96090    40   100    30    40    10
@N IRRIGATION  IMDEP ITHRL ITHRU IROFF IMETH IRAMT IREFF
 1 IR             30    50   100 IB001 IB001    10     0
@N NITROGEN    NMDEP NMTHR NAMNT NCODE NAOFF
 1 NI             30    50    25 IB001 IB001
@N RESIDUES    RIPCN RTIME RIDEP
 1 RE            100     1    20
@N HARVEST     HFRST HLAST HPCNP HPCNR
 1 HA              0 98350   100     0



