*SOILS: General DSSAT Soil Input File


!SSAT (438->468) + SSKS(0.06->0.10) + SDUL (366->396)
*SPPI050001  Pedreira, B   CL    200 PedreiraBC
@SITE        COUNTRY          LAT     LONG SCS FAMILY
 Piracicaba  Brazil        -22.720 -47.420 -99
@ SCOM  SALB  SLU1  SLDR  SLRO  SLNF  SLPF  SMHB  SMPX  SMKE
     R  0.14   6.0  0.40  84.0  1.00  1.00 IB001 IB001 IB001
@  SLB  SLMH  SLLL  SDUL  SSAT  SRGF  SSKS  SBDM  SLOC  SLCL  SLSI  SLCF  SLNI  SLHW  SLHB  SCEC  SADC
    20   -99 0.328 0.519 0.533 1.000  0.23  1.10  3.77  39.9  21.8   -99   -99   6.0   -99   -99    
    40   -99 0.242 0.366 0.468 0.549  0.10  1.42   -99  43.7  21.7   -99   -99   -99   -99   -99    
    70   -99 0.242 0.366 0.468 0.333  0.10  1.42   -99  43.7  21.7   -99   -99   -99   -99   -99    
    90   -99 0.242 0.366 0.468 0.202  0.10  1.42   -99  43.7  21.7   -99   -99   -99   -99   -99   
   110   -99 0.242 0.366 0.468 0.135  0.10  1.42   -99  43.7  21.7   -99   -99   -99   -99   -99   
   130   -99 0.242 0.366 0.468 0.091  0.10  1.42   -99  43.7  21.7   -99   -99   -99   -99   -99   
   160   -99 0.242 0.366 0.468 0.055  0.10  1.42   -99  43.7  21.7   -99   -99   -99   -99   -99    
   180   -99 0.242 0.366 0.468 0.033  0.10  1.42   -99  43.7  21.7   -99   -99   -99   -99   -99    
   200   -99 0.242 0.366 0.468 0.022  0.10  1.42   -99  43.7  21.7   -99   -99   -99   -99   -99    


*EBPI080100  LVada       SC      450 Latossolo Vermelho Amarelo
@SITE        COUNTRY          LAT     LONG SCS FAMILY
 Piracicaba  Brasil         -22.83  -47.33 Ultima Correcao - SGRF, SSKS SLLL SDUL
@ SCOM  SALB  SLU1  SLDR  SLRO  SLNF  SLPF  SMHB  SMPX  SMKE
     R   .14     2    .2    70     1  0.95 IB001 IB001 IB001
@  SLB  SLMH  SLLL  SDUL  SSAT  SRGF  SSKS  SBDM  SLOC  SLCL  SLSI  SLCF  SLNI  SLHW  SLHB  SCEC  SADC
     5    Ap  .242  .366   .48     1   .38  1.37  1.74    40    22     0   -99     6   -99   5.3   -99
    15   A21  .242  .366   .48     1   .38  1.37  1.74    40    22     0   -99     6   -99   3.7   -99
    25   A22  .242  .366   .48   .87   .38  1.37   1.1    40    22     0   -99     6   -99   3.7   -99
    40   Bw1  .242  .366   .48   .79    .4  1.35    .7    44    22     0   -99   6.1   -99   2.7   -99
    55   Bw2  .240  .340   .48    .7    .4  1.15    .4    61     4     0   -99   6.5   -99   2.8   -99
    75   Bw2  .240  .340   .49   .62    .4  1.15    .4    61     4     0   -99   6.5   -99   2.8   -99
    85   Bw3  .240  .340   .49   .55    .4  1.13    .3    61     4     0   -99   6.5   -99   2.3   -99
   200   Bw5  .250  .350   .49   .31   .36  1.13    .1    59    10     0   -99   6.6   -99   2.1   -99
   450   Bw5  .250  .350   .49   .02   .36  1.13    .1    59    10     0   -99   6.6   -99   2.1   -99

