*EXP.DETAILS: DTCM7001GS SPATIAL DEMO; CHIANG MAI, THAILAND

*GENERAL
@PEOPLE
DSSAT Foundation
@ADDRESS
Gainesville, Florida
@SITE
Chiang Mai, Thailand

*TREATMENTS                        -------------FACTOR LEVELS------------
@N R O C TNAME.................... CU FL SA IC MP MI MF MR MC MT ME MH SM
 1 1 0 0 SPATIAL                    1  1  0  0  1  0  0  0  0  0  0  0  1
 2 1 0 0 SPATIAL                    3  2  0  0  1  0  0  0  0  0  0  0  1
 3 1 0 0 SPATIAL                    3  3  0  0  1  0  0  0  0  0  0  0  1
 4 1 0 0 SPATIAL                    3  4  0  0  1  0  0  0  0  0  0  0  1
 5 1 0 0 SPATIAL                    3  5  0  0  1  0  0  0  0  0  0  0  1
 6 1 0 0 SPATIAL                    1  6  0  0  1  0  0  0  0  0  0  0  1
 7 1 0 0 SPATIAL                    1  7  0  0  1  0  0  0  0  0  0  0  1
 8 1 0 0 SPATIAL                    1  8  0  0  1  0  0  0  0  0  0  0  1
 9 1 0 0 SPATIAL                    2  9  0  0  1  0  0  0  0  0  0  0  1
10 1 0 0 SPATIAL                    3 10  0  0  1  0  0  0  0  0  0  0  1
11 1 0 0 SPATIAL                    3 11  0  0  1  0  0  0  0  0  0  0  1
12 1 0 0 SPATIAL                    3 12  0  0  1  0  0  0  0  0  0  0  1
13 1 0 0 SPATIAL                    3 13  0  0  1  0  0  0  0  0  0  0  1
14 1 0 0 SPATIAL                    3 14  0  0  1  0  0  0  0  0  0  0  1
15 1 0 0 SPATIAL                    2 15  0  0  1  0  0  0  0  0  0  0  1
16 1 0 0 SPATIAL                    3 16  0  0  1  0  0  0  0  0  0  0  1
17 1 0 0 SPATIAL                    2 17  0  0  1  0  0  0  0  0  0  0  1
18 1 0 0 SPATIAL                    2 18  0  0  1  0  0  0  0  0  0  0  1
19 1 0 0 SPATIAL                    2 19  0  0  1  0  0  0  0  0  0  0  1
20 1 0 0 SPATIAL                    4 20  0  0  1  0  0  0  0  0  0  0  1
21 1 0 0 SPATIAL                    2 21  0  0  1  0  0  0  0  0  0  0  1
22 1 0 0 SPATIAL                    4 22  0  0  1  0  0  0  0  0  0  0  1
23 1 0 0 SPATIAL                    4 23  0  0  1  0  0  0  0  0  0  0  1

*CULTIVARS
@C CR INGENO CNAME
 1 MZ IB0012 PIO 3382
 2 MZ IB0065 SUWAN-1
 3 MZ IB0063 PIO X 304C
 4 MZ IB0028 TAINAN-11

*FIELDS
@L ID_FIELD WSTA....  FLSA  FLOB  FLDT  FLDD  FLDS  FLST SLTX  SLDP  ID_SOIL    FLNAME
 1 DTCM0001 DTCM       -99     0 DR000     0     0 00000 -99    -99  IB00000010 -99
 2 DTCM0002 DTCM       -99     0 DR000     0     0 00000 -99    -99  IB00000002 -99
 3 DTCM0003 DTCM       -99     0 DR000     0     0 00000 -99    -99  IB00000003 -99
 4 DTCM0004 DTCM       -99     0 DR000     0     0 00000 -99    -99  IB00000012 -99
 5 DTCM0005 DTCM       -99     0 DR000     0     0 00000 -99    -99  IB00000010 -99
 6 DTCM0006 DTCM       -99     0 DR000     0     0 00000 -99    -99  IB00000005 -99
 7 DTCM0007 DTCM       -99     0 DR000     0     0 00000 -99    -99  IB00000008 -99
 8 DTCM0008 DTCM       -99     0 DR000     0     0 00000 -99    -99  IB00000002 -99
 9 DTCM0009 DTCM       -99     0 DR000     0     0 00000 -99    -99  IB00000002 -99
10 DTCM0010 DTCM       -99     0 DR000     0     0 00000 -99    -99  IB00000005 -99
11 DTCM0011 DTCM       -99     0 DR000     0     0 00000 -99    -99  IB00000009 -99
12 DTCM0012 DTCM       -99     0 DR000     0     0 00000 -99    -99  IB00000007 -99
13 DTCM0013 DTCM       -99     0 DR000     0     0 00000 -99    -99  IB00000001 -99
14 DTCM0014 DTCM       -99     0 DR000     0     0 00000 -99    -99  IB00000011 -99
15 DTCM0015 DTCM       -99     0 DR000     0     0 00000 -99    -99  IB00000011 -99
16 DTCM0016 DTCM       -99     0 DR000     0     0 00000 -99    -99  IB00000004 -99
17 DTCM0017 DTCM       -99     0 DR000     0     0 00000 -99    -99  IB00000006 -99
18 DTCM0018 DTCM       -99     0 DR000     0     0 00000 -99    -99  IB00000010 -99
19 DTCM0019 DTCM       -99     0 DR000     0     0 00000 -99    -99  IB00000005 -99
20 DTCM0020 DTCM       -99     0 DR000     0     0 00000 -99    -99  IB00000012 -99
21 DTCM0021 DTCM       -99     0 DR000     0     0 00000 -99    -99  IB00000001 -99
22 DTCM0022 DTCM       -99     0 DR000     0     0 00000 -99    -99  IB00000001 -99
23 DTCM0023 DTCM       -99     0 DR000     0     0 00000 -99    -99  IB00000011 -99
@L ...........XCRD ...........YCRD .....ELEV .............AREA .SLEN .FLWR .SLAS FLHST FHDUR
 1             -99             -99       -99               -99   -99   -99   -99   -99   -99
 2             -99             -99       -99               -99   -99   -99   -99   -99   -99
 3             -99             -99       -99               -99   -99   -99   -99   -99   -99
 4             -99             -99       -99               -99   -99   -99   -99   -99   -99
 5             -99             -99       -99               -99   -99   -99   -99   -99   -99
 6             -99             -99       -99               -99   -99   -99   -99   -99   -99
 7             -99             -99       -99               -99   -99   -99   -99   -99   -99
 8             -99             -99       -99               -99   -99   -99   -99   -99   -99
 9             -99             -99       -99               -99   -99   -99   -99   -99   -99
10             -99             -99       -99               -99   -99   -99   -99   -99   -99
11             -99             -99       -99               -99   -99   -99   -99   -99   -99
12             -99             -99       -99               -99   -99   -99   -99   -99   -99
13             -99             -99       -99               -99   -99   -99   -99   -99   -99
14             -99             -99       -99               -99   -99   -99   -99   -99   -99
15             -99             -99       -99               -99   -99   -99   -99   -99   -99
16             -99             -99       -99               -99   -99   -99   -99   -99   -99
17             -99             -99       -99               -99   -99   -99   -99   -99   -99
18             -99             -99       -99               -99   -99   -99   -99   -99   -99
19             -99             -99       -99               -99   -99   -99   -99   -99   -99
20             -99             -99       -99               -99   -99   -99   -99   -99   -99
21             -99             -99       -99               -99   -99   -99   -99   -99   -99
22             -99             -99       -99               -99   -99   -99   -99   -99   -99
23             -99             -99       -99               -99   -99   -99   -99   -99   -99

*INITIAL CONDITIONS
@C   PCR ICDAT  ICRT  ICND  ICRN  ICRE  ICWD ICRES ICREN ICREP ICRIP ICRID ICNAME
 1    MZ 70089   200   -99     1     1   -99   -99   -99   -99   -99   -99 -99
@C  ICBL  SH2O  SNH4  SNO3
 1    30   .38    .5    .5
 1    45   .38    .5    .4
 1    60   .38    .5    .4
 1    90   .38    .5    .3
 1   120   .38    .5    .2
 1   150   .38    .5    .1

*PLANTING DETAILS
@P PDATE EDATE  PPOP  PPOE  PLME  PLDS  PLRS  PLRD  PLDP  PLWT  PAGE  PENV  PLPH  SPRL                        PLNAME
 1 70170   -99   4.4   4.4     S     R    50     0     4   -99   -99   -99   -99   -99                        -99

*FERTILIZERS (INORGANIC)
@F FDATE  FMCD  FACD  FDEP  FAMN  FAMP  FAMK  FAMC  FAMO  FOCD FERNAME
 1 70170 FE005   -99    10    30   -99   -99   -99   -99   -99 -99
 1 70200 FE005   -99     3    30   -99   -99   -99   -99   -99 -99

*SIMULATION CONTROLS
@N GENERAL     NYERS NREPS START SDATE RSEED SNAME.................... SMODEL
 1 GE             30     1     S 70165  2150 DEFAULT SPATIAL SIMULATI
@N OPTIONS     WATER NITRO SYMBI PHOSP POTAS DISES  CHEM  TILL   CO2
 1 OP              Y     Y     Y     N     N     N     N     Y     D
@N METHODS     WTHER INCON LIGHT EVAPO INFIL PHOTO HYDRO NSWIT MESOM MESEV MESOL
 1 ME              W     M     E     R     S     C     R     1     G     S     2
@N MANAGEMENT  PLANT IRRIG FERTI RESID HARVS
 1 MA              R     R     R     R     M
@N OUTPUTS     FNAME OVVEW SUMRY FROPT GROUT CAOUT WAOUT NIOUT MIOUT DIOUT VBOSE CHOUT OPOUT FMOPT
 1 OU              Y     N     Y     1     N     N     N     N     N     N     Y     N     N     A

@  AUTOMATIC MANAGEMENT
@N PLANTING    PFRST PLAST PH2OL PH2OU PH2OD PSTMX PSTMN
 1 PL          70155 70200    40   100    30    40    10
@N IRRIGATION  IMDEP ITHRL ITHRU IROFF IMETH IRAMT IREFF
 1 IR             30    50   100 GS000 IR001    10     1
@N NITROGEN    NMDEP NMTHR NAMNT NCODE NAOFF
 1 NI             30    50    25 FE001 GS000
@N RESIDUES    RIPCN RTIME RIDEP
 1 RE            100     1    20
@N HARVEST     HFRST HLAST HPCNP HPCNR
 1 HA              0 70365   100     0



