*EXP.DETAILS: FLSC8101GS SPATIAL ANALYSES TEST CASE; FLORENCE, SOUTH CAROLINA

*GENERAL
@PEOPLE
DSSAT Foundation
@ADDRESS
Gainesville, Florida
@SITE
FLORENCE,SC,USA 34.00;0;-99;SC

*TREATMENTS                        -------------FACTOR LEVELS------------
@N R O C TNAME.................... CU FL SA IC MP MI MF MR MC MT ME MH SM
 1 1 0 0 SILTY CLAY                 1  1  0  1  1  0  1  1  0  0  0  0  1
 2 1 0 0 SILTY CLAY                 1  2  0  1  1  0  1  1  0  0  0  0  1
 3 1 0 0 SILTY CLAY                 1  3  0  1  1  0  1  1  0  0  0  0  1
 4 1 0 0 SILTY CLAY                 1  4  0  1  1  0  1  2  0  0  0  0  1
 5 1 0 0 SILTY LOAM                 1  5  0  2  1  0  1  2  0  0  0  0  1
 6 1 0 0 SILTY LOAM                 1  6  0  2  1  0  1  2  0  0  0  0  1
 7 1 0 0 SILTY LOAM                 1  7  0  2  1  0  1  2  0  0  0  0  1
 8 1 0 0 SILTY LOAM                 1  8  0  2  1  0  1  1  0  0  0  0  1
 9 1 0 0 SILTY LOAM                 1  9  0  2  1  0  1  1  0  0  0  0  1
10 1 0 0 SILTY LOAM                 1 10  0  2  1  0  1  1  0  0  0  0  1
11 1 0 0 SILTY CLAY                 1 11  0  1  1  0  1  1  0  0  0  0  1
12 1 0 0 SILTY CLAY                 1 12  0  1  1  0  1  1  0  0  0  0  1
13 1 0 0 SILTY CLAY                 1 13  0  1  1  0  1  2  0  0  0  0  1
14 1 0 0 SILTY CLAY                 1 14  0  1  1  0  1  2  0  0  0  0  1
15 1 0 0 SILTY LOAM                 1 15  0  2  1  0  1  2  0  0  0  0  1
16 1 0 0 SILTY LOAM                 1 16  0  2  1  0  1  2  0  0  0  0  1
17 1 0 0 SILTY LOAM                 1 17  0  2  1  0  1  1  0  0  0  0  1
18 1 0 0 SILTY LOAM                 1 18  0  2  1  0  1  1  0  0  0  0  1
19 1 0 0 SILTY LOAM                 1 19  0  2  1  0  1  1  0  0  0  0  1
20 1 0 0 SILTY LOAM                 1 20  0  2  1  0  1  1  0  0  0  0  1
21 1 0 0 SILTY CLAY                 1 21  0  1  1  0  1  1  0  0  0  0  1
22 1 0 0 SILTY CLAY                 1 22  0  1  1  0  1  1  0  0  0  0  1
23 1 0 0 SILTY CLAY                 1 23  0  1  1  0  1  1  0  0  0  0  1
24 1 0 0 SILTY CLAY                 1 24  0  1  1  0  1  2  0  0  0  0  1
25 1 0 0 SILTY LOAM                 1 25  0  2  1  0  1  2  0  0  0  0  1
26 1 0 0 SILTY LOAM                 1 26  0  2  1  0  1  2  0  0  0  0  1
27 1 0 0 SILTY LOAM                 1 27  0  2  1  0  1  2  0  0  0  0  1
28 1 0 0 SILTY LOAM                 1 28  0  2  1  0  1  1  0  0  0  0  1
29 1 0 0 SILTY LOAM                 1 29  0  2  1  0  1  1  0  0  0  0  1
30 1 0 0 SILTY LOAM                 1 30  0  2  1  0  1  1  0  0  0  0  1
31 1 0 0 SILTY CLAY                 1 31  0  1  1  0  1  1  0  0  0  0  1
32 1 0 0 SILTY CLAY                 1 32  0  1  1  0  1  1  0  0  0  0  1
33 1 0 0 SILTY CLAY                 1 33  0  1  1  0  1  2  0  0  0  0  1
34 1 0 0 SILTY CLAY                 1 34  0  1  1  0  1  2  0  0  0  0  1
35 1 0 0 SILTY LOAM                 1 35  0  2  1  0  1  2  0  0  0  0  1
36 1 0 0 SILTY LOAM                 1 36  0  2  1  0  1  2  0  0  0  0  1
37 1 0 0 SILTY LOAM                 1 37  0  2  1  0  1  1  0  0  0  0  1
38 1 0 0 SILTY LOAM                 1 38  0  2  1  0  1  1  0  0  0  0  1
39 1 0 0 SILTY LOAM                 1 39  0  2  1  0  1  1  0  0  0  0  1
40 1 0 0 SILTY LOAM                 1 40  0  2  1  0  2  1  0  0  0  0  1
41 1 0 0 SILTY CLAY                 1 41  0  1  1  0  2  1  0  0  0  0  1
42 1 0 0 SILTY CLAY                 1 42  0  1  1  0  2  1  0  0  0  0  1
43 1 0 0 SILTY CLAY                 1 43  0  1  1  0  2  1  0  0  0  0  1
44 1 0 0 SILTY CLAY                 1 44  0  1  1  0  2  2  0  0  0  0  1
45 1 0 0 SANDY LOAM                 1 45  0  3  1  0  2  2  0  0  0  0  1
46 1 0 0 SANDY LOAM                 1 46  0  3  1  0  2  2  0  0  0  0  1
47 1 0 0 SANDY LOAM                 1 47  0  3  1  0  2  2  0  0  0  0  1
48 1 0 0 SANDY LOAM                 1 48  0  3  1  0  2  1  0  0  0  0  1
49 1 0 0 SANDY LOAM                 1 49  0  3  1  0  2  1  0  0  0  0  1
50 1 0 0 SANDY LOAM                 1 50  0  3  1  0  2  1  0  0  0  0  1
51 1 0 0 SILTY CLAY                 1 51  0  1  1  0  2  1  0  0  0  0  1
52 1 0 0 SILTY CLAY                 1 52  0  1  1  0  2  1  0  0  0  0  1
53 1 0 0 SILTY CLAY                 1 53  0  1  1  0  2  2  0  0  0  0  1
54 1 0 0 SILTY CLAY                 1 54  0  1  1  0  2  2  0  0  0  0  1
55 1 0 0 SANDY LOAM                 1 55  0  3  1  0  2  2  0  0  0  0  1
56 1 0 0 SANDY LOAM                 1 56  0  3  1  0  2  2  0  0  0  0  1
57 1 0 0 SANDY LOAM                 1 57  0  3  1  0  2  1  0  0  0  0  1
58 1 0 0 SANDY LOAM                 1 58  0  3  1  0  2  1  0  0  0  0  1
59 1 0 0 SANDY LOAM                 1 59  0  3  1  0  2  1  0  0  0  0  1
60 1 0 0 SANDY LOAM                 1 60  0  3  1  0  2  1  0  0  0  0  1
61 1 0 0 SAND                       1 61  0  4  1  0  2  1  0  0  0  0  1
62 1 0 0 SAND                       1 62  0  4  1  0  2  1  0  0  0  0  1
63 1 0 0 SAND                       1 63  0  4  1  0  2  1  0  0  0  0  1
64 1 0 0 SAND                       1 64  0  4  1  0  2  2  0  0  0  0  1
65 1 0 0 SAND                       1 65  0  4  1  0  2  2  0  0  0  0  1
66 1 0 0 SAND                       1 66  0  4  1  0  2  2  0  0  0  0  1
67 1 0 0 SANDY LOAM                 1 67  0  3  1  0  2  2  0  0  0  0  1
68 1 0 0 SANDY LOAM                 1 68  0  3  1  0  2  1  0  0  0  0  1
69 1 0 0 SANDY LOAM                 1 69  0  3  1  0  2  1  0  0  0  0  1
70 1 0 0 SANDY LOAM                 1 70  0  3  1  0  2  1  0  0  0  0  1
71 1 0 0 SAND                       1 71  0  4  1  0  2  1  0  0  0  0  1
72 1 0 0 SAND                       1 72  0  4  1  0  2  1  0  0  0  0  1
73 1 0 0 SAND                       1 73  0  4  1  0  2  2  0  0  0  0  1
74 1 0 0 SAND                       1 74  0  4  1  0  2  2  0  0  0  0  1
75 1 0 0 SAND                       1 75  0  4  1  0  2  2  0  0  0  0  1
76 1 0 0 SAND                       1 76  0  4  1  0  2  2  0  0  0  0  1
77 1 0 0 SANDY LOAM                 1 77  0  3  1  0  2  1  0  0  0  0  1
78 1 0 0 SANDY LOAM                 1 78  0  3  1  0  2  1  0  0  0  0  1
79 1 0 0 SANDY LOAM                 1 79  0  3  1  0  2  1  0  0  0  0  1
80 1 0 0 SANDY LOAM                 1 80  0  3  1  0  1  1  0  0  0  0  1
81 1 0 0 SAND                       1 81  0  4  1  0  1  1  0  0  0  0  1
82 1 0 0 SAND                       1 82  0  4  1  0  1  1  0  0  0  0  1
83 1 0 0 SAND                       1 83  0  4  1  0  1  1  0  0  0  0  1
84 1 0 0 SAND                       1 84  0  4  1  0  1  2  0  0  0  0  1
85 1 0 0 SAND                       1 85  0  4  1  0  1  2  0  0  0  0  1
86 1 0 0 SAND                       1 86  0  4  1  0  1  2  0  0  0  0  1
87 1 0 0 SANDY LOAM                 1 87  0  3  1  0  1  2  0  0  0  0  1
88 1 0 0 SANDY LOAM                 1 88  0  3  1  0  1  1  0  0  0  0  1
89 1 0 0 SANDY LOAM                 1 89  0  3  1  0  1  1  0  0  0  0  1
90 1 0 0 SANDY LOAM                 1 90  0  3  1  0  1  1  0  0  0  0  1
91 1 0 0 SAND                       1 91  0  4  1  0  1  1  0  0  0  0  1
92 1 0 0 SAND                       1 92  0  4  1  0  1  1  0  0  0  0  1
93 1 0 0 SAND                       1 93  0  4  1  0  1  2  0  0  0  0  1
94 1 0 0 SAND                       1 94  0  4  1  0  1  2  0  0  0  0  1
95 1 0 0 SAND                       1 95  0  4  1  0  1  2  0  0  0  0  1
96 1 0 0 SAND                       1 96  0  4  1  0  1  2  0  0  0  0  1
97 1 0 0 SANDY LOAM                 1 97  0  3  1  0  1  1  0  0  0  0  1
98 1 0 0 SANDY LOAM                 1 98  0  3  1  0  1  1  0  0  0  0  1
99 1 0 0 SANDY LOAM                 1 99  0  3  1  0  1  1  0  0  0  0  1

*CULTIVARS
@C CR INGENO CNAME
 1 MZ IB0012 PIO 3382

*FIELDS
@L ID_FIELD WSTA....  FLSA  FLOB  FLDT  FLDD  FLDS  FLST SLTX  SLDP  ID_SOIL    FLNAME
 1 FLSC0001 FLSC8101   -99     0 DR000     0     0 00000 -99    151  IB00000002 -99
 2 FLSC0002 FLSC8101   -99     0 DR000     0     0 00000 -99    151  IB00000002 -99
 3 FLSC0003 FLSC8101   -99     0 DR000     0     0 00000 -99    151  IB00000002 -99
 4 FLSC0004 FLSC8101   -99     0 DR000     0     0 00000 -99    151  IB00000002 -99
 5 FLSC0005 FLSC8101   -99     0 DR000     0     0 00000 -99    151  IB00000005 -99
 6 FLSC0006 FLSC8101   -99     0 DR000     0     0 00000 -99    151  IB00000005 -99
 7 FLSC0007 FLSC8101   -99     0 DR000     0     0 00000 -99    151  IB00000005 -99
 8 FLSC0008 FLSC8101   -99     0 DR000     0     0 00000 -99    151  IB00000005 -99
 9 FLSC0009 FLSC8101   -99     0 DR000     0     0 00000 -99    151  IB00000005 -99
10 FLSC0010 FLSC8101   -99     0 DR000     0     0 00000 -99    151  IB00000005 -99
11 FLSC0011 FLSC8101   -99     0 DR000     0     0 00000 -99    151  IB00000002 -99
12 FLSC0012 FLSC8101   -99     0 DR000     0     0 00000 -99    151  IB00000002 -99
13 FLSC0013 FLSC8101   -99     0 DR000     0     0 00000 -99    151  IB00000002 -99
14 FLSC0014 FLSC8101   -99     0 DR000     0     0 00000 -99    151  IB00000002 -99
15 FLSC0015 FLSC8101   -99     0 DR000     0     0 00000 -99    151  IB00000005 -99
16 FLSC0016 FLSC8101   -99     0 DR000     0     0 00000 -99    151  IB00000005 -99
17 FLSC0017 FLSC8101   -99     0 DR000     0     0 00000 -99    151  IB00000005 -99
18 FLSC0018 FLSC8101   -99     0 DR000     0     0 00000 -99    151  IB00000005 -99
19 FLSC0019 FLSC8101   -99     0 DR000     0     0 00000 -99    151  IB00000005 -99
20 FLSC0020 FLSC8101   -99     0 DR000     0     0 00000 -99    151  IB00000005 -99
21 FLSC0021 FLSC8101   -99     0 DR000     0     0 00000 -99    151  IB00000002 -99
22 FLSC0022 FLSC8101   -99     0 DR000     0     0 00000 -99    151  IB00000002 -99
23 FLSC0023 FLSC8101   -99     0 DR000     0     0 00000 -99    151  IB00000002 -99
24 FLSC0024 FLSC8101   -99     0 DR000     0     0 00000 -99    151  IB00000002 -99
25 FLSC0025 FLSC8101   -99     0 DR000     0     0 00000 -99    151  IB00000005 -99
26 FLSC0026 FLSC8101   -99     0 DR000     0     0 00000 -99    151  IB00000005 -99
27 FLSC0027 FLSC8101   -99     0 DR000     0     0 00000 -99    151  IB00000005 -99
28 FLSC0028 FLSC8101   -99     0 DR000     0     0 00000 -99    151  IB00000005 -99
29 FLSC0029 FLSC8101   -99     0 DR000     0     0 00000 -99    151  IB00000005 -99
30 FLSC0030 FLSC8101   -99     0 DR000     0     0 00000 -99    151  IB00000005 -99
31 FLSC0031 FLSC8101   -99     0 DR000     0     0 00000 -99    151  IB00000002 -99
32 FLSC0032 FLSC8101   -99     0 DR000     0     0 00000 -99    151  IB00000002 -99
33 FLSC0033 FLSC8101   -99     0 DR000     0     0 00000 -99    151  IB00000002 -99
34 FLSC0034 FLSC8101   -99     0 DR000     0     0 00000 -99    151  IB00000002 -99
35 FLSC0035 FLSC8101   -99     0 DR000     0     0 00000 -99    151  IB00000005 -99
36 FLSC0036 FLSC8101   -99     0 DR000     0     0 00000 -99    151  IB00000005 -99
37 FLSC0037 FLSC8101   -99     0 DR000     0     0 00000 -99    151  IB00000005 -99
38 FLSC0038 FLSC8101   -99     0 DR000     0     0 00000 -99    151  IB00000005 -99
39 FLSC0039 FLSC8101   -99     0 DR000     0     0 00000 -99    151  IB00000005 -99
40 FLSC0040 FLSC8101   -99     0 DR000     0     0 00000 -99    151  IB00000005 -99
41 FLSC0041 FLSC8101   -99     0 DR000     0     0 00000 -99    151  IB00000002 -99
42 FLSC0042 FLSC8101   -99     0 DR000     0     0 00000 -99    151  IB00000002 -99
43 FLSC0043 FLSC8101   -99     0 DR000     0     0 00000 -99    151  IB00000002 -99
44 FLSC0044 FLSC8101   -99     0 DR000     0     0 00000 -99    151  IB00000002 -99
45 FLSC0045 FLSC8101   -99     0 DR000     0     0 00000 -99    151  IB00000008 -99
46 FLSC0046 FLSC8101   -99     0 DR000     0     0 00000 -99    151  IB00000008 -99
47 FLSC0047 FLSC8101   -99     0 DR000     0     0 00000 -99    151  IB00000008 -99
48 FLSC0048 FLSC8101   -99     0 DR000     0     0 00000 -99    151  IB00000008 -99
49 FLSC0049 FLSC8101   -99     0 DR000     0     0 00000 -99    151  IB00000008 -99
50 FLSC0050 FLSC8101   -99     0 DR000     0     0 00000 -99    151  IB00000008 -99
51 FLSC0051 FLSC8101   -99     0 DR000     0     0 00000 -99    151  IB00000002 -99
52 FLSC0052 FLSC8101   -99     0 DR000     0     0 00000 -99    151  IB00000002 -99
53 FLSC0053 FLSC8101   -99     0 DR000     0     0 00000 -99    151  IB00000002 -99
54 FLSC0054 FLSC8101   -99     0 DR000     0     0 00000 -99    151  IB00000008 -99
55 FLSC0055 FLSC8101   -99     0 DR000     0     0 00000 -99    151  IB00000008 -99
56 FLSC0056 FLSC8101   -99     0 DR000     0     0 00000 -99    151  IB00000008 -99
57 FLSC0057 FLSC8101   -99     0 DR000     0     0 00000 -99    151  IB00000008 -99
58 FLSC0058 FLSC8101   -99     0 DR000     0     0 00000 -99    151  IB00000008 -99
59 FLSC0059 FLSC8101   -99     0 DR000     0     0 00000 -99    151  IB00000008 -99
60 FLSC0060 FLSC8101   -99     0 DR000     0     0 00000 -99    151  IB00000008 -99
61 FLSC0061 FLSC8101   -99     0 DR000     0     0 00000 -99    151  IB00000011 -99
62 FLSC0062 FLSC8101   -99     0 DR000     0     0 00000 -99    151  IB00000011 -99
63 FLSC0063 FLSC8101   -99     0 DR000     0     0 00000 -99    151  IB00000011 -99
64 FLSC0064 FLSC8101   -99     0 DR000     0     0 00000 -99    151  IB00000011 -99
65 FLSC0065 FLSC8101   -99     0 DR000     0     0 00000 -99    151  IB00000011 -99
66 FLSC0066 FLSC8101   -99     0 DR000     0     0 00000 -99    151  IB00000011 -99
67 FLSC0067 FLSC8101   -99     0 DR000     0     0 00000 -99    151  IB00000008 -99
68 FLSC0068 FLSC8101   -99     0 DR000     0     0 00000 -99    151  IB00000008 -99
69 FLSC0069 FLSC8101   -99     0 DR000     0     0 00000 -99    151  IB00000008 -99
70 FLSC0070 FLSC8101   -99     0 DR000     0     0 00000 -99    151  IB00000008 -99
71 FLSC0071 FLSC8101   -99     0 DR000     0     0 00000 -99    151  IB00000011 -99
72 FLSC0072 FLSC8101   -99     0 DR000     0     0 00000 -99    151  IB00000011 -99
73 FLSC0073 FLSC8101   -99     0 DR000     0     0 00000 -99    151  IB00000011 -99
74 FLSC0074 FLSC8101   -99     0 DR000     0     0 00000 -99    151  IB00000011 -99
75 FLSC0075 FLSC8101   -99     0 DR000     0     0 00000 -99    151  IB00000011 -99
76 FLSC0076 FLSC8101   -99     0 DR000     0     0 00000 -99    151  IB00000011 -99
77 FLSC0077 FLSC8101   -99     0 DR000     0     0 00000 -99    151  IB00000008 -99
78 FLSC0078 FLSC8101   -99     0 DR000     0     0 00000 -99    151  IB00000008 -99
79 FLSC0079 FLSC8101   -99     0 DR000     0     0 00000 -99    151  IB00000008 -99
80 FLSC0080 FLSC8101   -99     0 DR000     0     0 00000 -99    151  IB00000008 -99
81 FLSC0081 FLSC8101   -99     0 DR000     0     0 00000 -99    151  IB00000011 -99
82 FLSC0082 FLSC8101   -99     0 DR000     0     0 00000 -99    151  IB00000011 -99
83 FLSC0083 FLSC8101   -99     0 DR000     0     0 00000 -99    151  IB00000011 -99
84 FLSC0084 FLSC8101   -99     0 DR000     0     0 00000 -99    151  IB00000011 -99
85 FLSC0085 FLSC8101   -99     0 DR000     0     0 00000 -99    151  IB00000011 -99
86 FLSC0086 FLSC8101   -99     0 DR000     0     0 00000 -99    151  IB00000011 -99
87 FLSC0087 FLSC8101   -99     0 DR000     0     0 00000 -99    151  IB00000008 -99
88 FLSC0088 FLSC8101   -99     0 DR000     0     0 00000 -99    151  IB00000008 -99
89 FLSC0089 FLSC8101   -99     0 DR000     0     0 00000 -99    151  IB00000008 -99
90 FLSC0090 FLSC8101   -99     0 DR000     0     0 00000 -99    151  IB00000008 -99
91 FLSC0091 FLSC8101   -99     0 DR000     0     0 00000 -99    151  IB00000011 -99
92 FLSC0092 FLSC8101   -99     0 DR000     0     0 00000 -99    151  IB00000011 -99
93 FLSC0093 FLSC8101   -99     0 DR000     0     0 00000 -99    151  IB00000011 -99
94 FLSC0094 FLSC8101   -99     0 DR000     0     0 00000 -99    151  IB00000011 -99
95 FLSC0095 FLSC8101   -99     0 DR000     0     0 00000 -99    151  IB00000011 -99
96 FLSC0096 FLSC8101   -99     0 DR000     0     0 00000 -99    151  IB00000011 -99
97 FLSC0097 FLSC8101   -99     0 DR000     0     0 00000 -99    151  IB00000008 -99
98 FLSC0098 FLSC8101   -99     0 DR000     0     0 00000 -99    151  IB00000008 -99
99 FLSC0099 FLSC8101   -99     0 DR000     0     0 00000 -99    151  IB00000008 -99
@L ...........XCRD ...........YCRD .....ELEV .............AREA .SLEN .FLWR .SLAS FLHST FHDUR
 1               5               5         1                 0     0     1    90   -99   -99
 2              15               5       1.2                 0     0     1    90   -99   -99
 3              25               5       1.5                 0     0     1    90   -99   -99
 4              35               5         2                 0     0     1    90   -99   -99
 5              45               5       2.5                 0     0     1    90   -99   -99
 6              55               5       3.2                 0     0     1    90   -99   -99
 7              65               5         3                 0     0     1    90   -99   -99
 8              75               5       2.5                 0     0     1    90   -99   -99
 9              85               5         2                 0     0     1    90   -99   -99
10              95               5       2.3                 0     0     1    90   -99   -99
11              10              15         2                 0     0     1    90   -99   -99
12              20              15       2.2                 0     0     1    90   -99   -99
13              30              15       2.5                 0     0     1    90   -99   -99
14              40              15         2                 0     0     1    90   -99   -99
15              50              15       3.5                 0     0     1    90   -99   -99
16              60              15       4.2                 0     0     1    90   -99   -99
17              70              15         4                 0     0     1    90   -99   -99
18              80              15       3.5                 0     0     1    90   -99   -99
19              90              15         3                 0     0     1    90   -99   -99
20             100              15       2.3                 0     0     1    90   -99   -99
21               5              25         3                 0     0     1    90   -99   -99
22              15              25       3.2                 0     0     1    90   -99   -99
23              25              25       3.5                 0     0     1    90   -99   -99
24              35              25         4                 0     0     1    90   -99   -99
25              45              25       4.5                 0     0     1    90   -99   -99
26              55              25       5.2                 0     0     1    90   -99   -99
27              65              25         5                 0     0     1    90   -99   -99
28              75              25       4.5                 0     0     1    90   -99   -99
29              85              25         4                 0     0     1    90   -99   -99
30              95              25       3.3                 0     0     1    90   -99   -99
31              10              35         4                 0     0     1    90   -99   -99
32              20              35       4.2                 0     0     1    90   -99   -99
33              30              35       4.5                 0     0     1    90   -99   -99
34              40              35         5                 0     0     1    90   -99   -99
35              50              35       5.5                 0     0     1    90   -99   -99
36              60              35       6.2                 0     0     1    90   -99   -99
37              70              35         6                 0     0     1    90   -99   -99
38              80              35       5.5                 0     0     1    90   -99   -99
39              90              35         5                 0     0     1    90   -99   -99
40             100              35       4.3                 0     0     1    90   -99   -99
41               5              45         3                 0     0     1    90   -99   -99
42              15              45       3.2                 0     0     1    90   -99   -99
43              25              45       3.5                 0     0     1    90   -99   -99
44              35              45         4                 0     0     1    90   -99   -99
45              45              45       4.5                 0     0     1    90   -99   -99
46              55              45       5.2                 0     0     1    90   -99   -99
47              65              45         5                 0     0     1    90   -99   -99
48              75              45       4.5                 0     0     1    90   -99   -99
49              85              45         4                 0     0     1    90   -99   -99
50              95              45       3.3                 0     0     1    90   -99   -99
51              10              55         2                 0     0     1    90   -99   -99
52              20              55       2.2                 0     0     1    90   -99   -99
53              30              55       2.5                 0     0     1    90   -99   -99
54              40              55         3                 0     0     1    90   -99   -99
55              50              55       3.5                 0     0     1    90   -99   -99
56              60              55       4.2                 0     0     1    90   -99   -99
57              70              55         4                 0     0     1    90   -99   -99
58              80              55       3.5                 0     0     1    90   -99   -99
59              90              55         3                 0     0     1    90   -99   -99
60             100              55       2.3                 0     0     1    90   -99   -99
61               5              65         1                 0     0     1    90   -99   -99
62              15              65       1.2                 0     0     1    90   -99   -99
63              25              65       1.5                 0     0     1    90   -99   -99
64              35              65         2                 0     0     1    90   -99   -99
65              45              65       2.5                 0     0     1    90   -99   -99
66              55              65       3.2                 0     0     1    90   -99   -99
67              65              65         3                 0     0     1    90   -99   -99
68              75              65       2.5                 0     0     1    90   -99   -99
69              85              65         2                 0     0     1    90   -99   -99
70              95              65       1.3                 0     0     1    90   -99   -99
71              10              75         0                 0     0     1    90   -99   -99
72              20              75        .2                 0     0     1    90   -99   -99
73              30              75        .5                 0     0     1    90   -99   -99
74              40              75         0                 0     0     1    90   -99   -99
75              50              75        .5                 0     0     1    90   -99   -99
76              60              75        .2                 0     0     1    90   -99   -99
77              70              75         0                 0     0     1    90   -99   -99
78              80              75        .5                 0     0     1    90   -99   -99
79              90              75         0                 0     0     1    90   -99   -99
80             100              75        .3                 0     0     1    90   -99   -99
81               5              85         0                 0     0     1    90   -99   -99
82              15              85         0                 0     0     1    90   -99   -99
83              25              85         0                 0     0     1    90   -99   -99
84              35              85         0                 0     0     1    90   -99   -99
85              45              85         0                 0     0     1    90   -99   -99
86              55              85         0                 0     0     1    90   -99   -99
87              65              85         0                 0     0     1    90   -99   -99
88              75              85         0                 0     0     1    90   -99   -99
89              85              85         0                 0     0     1    90   -99   -99
90              95              85         0                 0     0     1    90   -99   -99
91              10              95         0                 0     0     1    90   -99   -99
92              20              95        .2                 0     0     1    90   -99   -99
93              30              95        .5                 0     0     1    90   -99   -99
94              40              95         1                 0     0     1    90   -99   -99
95              50              95       1.5                 0     0     1    90   -99   -99
96              60              95       2.2                 0     0     1    90   -99   -99
97              70              95         2                 0     0     1    90   -99   -99
98              80              95       1.5                 0     0     1    90   -99   -99
99              90              95         1                 0     0     1    90   -99   -99

*INITIAL CONDITIONS
@C   PCR ICDAT  ICRT  ICND  ICRN  ICRE  ICWD ICRES ICREN ICREP ICRIP ICRID ICNAME
 1    MZ 81089   200   -99     1     1   -99   -99   -99   -99   -99   -99 -99
@C  ICBL  SH2O  SNH4  SNO3
 1    30   .38    .5    .5
 1    45   .38    .5    .4
 1    60   .38    .5    .4
 1    90   .38    .5    .3
 1   120   .38    .5    .2
 1   150   .38    .5    .1
@C   PCR ICDAT  ICRT  ICND  ICRN  ICRE  ICWD ICRES ICREN ICREP ICRIP ICRID ICNAME
 2    MZ 81089   200   -99     1     1   -99   -99   -99   -99   -99   -99 -99
@C  ICBL  SH2O  SNH4  SNO3
 2    30  .262    .5    .9
 2    45  .262    .2    .8
 2    60  .262    .2    .8
 2    90  .261    .2    .6
 2   120   .26    .2    .4
 2   150  .259    .2    .2
@C   PCR ICDAT  ICRT  ICND  ICRN  ICRE  ICWD ICRES ICREN ICREP ICRIP ICRID ICNAME
 3    MZ 81089   200   -99     1     1   -99   -99   -99   -99   -99   -99 -99
@C  ICBL  SH2O  SNH4  SNO3
 3    30   .22    .2    .7
 3    45   .22    .2    .6
 3    60   .22    .2    .6
 3    90  .219    .2    .5
 3   120  .218    .2    .3
 3   150  .218    .2    .1
@C   PCR ICDAT  ICRT  ICND  ICRN  ICRE  ICWD ICRES ICREN ICREP ICRIP ICRID ICNAME
 4    MZ 81089   200   -99     1     1   -99   -99   -99   -99   -99   -99 -99
@C  ICBL  SH2O  SNH4  SNO3
 4    30  .107    .2    .7
 4    45  .107    .2    .6
 4    60  .107    .2    .6
 4    90  .107    .2    .5
 4   120  .106    .2    .3
 4   150  .106    .2    .1

*PLANTING DETAILS
@P PDATE EDATE  PPOP  PPOE  PLME  PLDS  PLRS  PLRD  PLDP  PLWT  PAGE  PENV  PLPH  SPRL                        PLNAME
 1 81097   -99   7.1   7.1     S     R    50     0     4   -99   -99   -99   -99   -99                        -99

*FERTILIZERS (INORGANIC)
@F FDATE  FMCD  FACD  FDEP  FAMN  FAMP  FAMK  FAMC  FAMO  FOCD FERNAME
 1 81090 FE005   -99    10    66   -99   -99   -99   -99   -99 -99
 1 81139 FE005   -99    10    66   -99   -99   -99   -99   -99 -99
 1 81153 FE005   -99    10    66   -99   -99   -99   -99   -99 -99
 2 81090 FE005   -99    10    40   -99   -99   -99   -99   -99 -99
 2 81139 FE005   -99    10    20   -99   -99   -99   -99   -99 -99
 2 81153 FE005   -99    10    10   -99   -99   -99   -99   -99 -99

*RESIDUES AND ORGANIC FERTILIZER
@R RDATE  RCOD  RAMT  RESN  RESP  RESK  RINP  RDEP  RMET RENAME
 1 81089 RE001   300    .5   -99   -99   -99    10   -99 -99
 2 81089 RE001   900    .5   -99   -99   -99    10   -99 -99

*SIMULATION CONTROLS
@N GENERAL     NYERS NREPS START SDATE RSEED SNAME.................... SMODEL
 1 GE              1     1     S 81089  2150 N SPATIAL ANALYSES TEST
@N OPTIONS     WATER NITRO SYMBI PHOSP POTAS DISES  CHEM  TILL   CO2
 1 OP              Y     Y     Y     N     N     N     N     N     D
@N METHODS     WTHER INCON LIGHT EVAPO INFIL PHOTO HYDRO NSWIT MESOM MESEV MESOL
 1 ME              M     M     E     R     S     C     R     1     G     S     2
@N MANAGEMENT  PLANT IRRIG FERTI RESID HARVS
 1 MA              R     R     R     R     M
@N OUTPUTS     FNAME OVVEW SUMRY FROPT GROUT CAOUT WAOUT NIOUT MIOUT DIOUT VBOSE CHOUT OPOUT FMOPT
 1 OU              Y     N     Y     3     N     N     N     N     N     N     Y     N     N     A

@  AUTOMATIC MANAGEMENT
@N PLANTING    PFRST PLAST PH2OL PH2OU PH2OD PSTMX PSTMN
 1 PL          98155 98200    40   100    30    40    10
@N IRRIGATION  IMDEP ITHRL ITHRU IROFF IMETH IRAMT IREFF
 1 IR             30    50   100 GS000 IR001    10     1
@N NITROGEN    NMDEP NMTHR NAMNT NCODE NAOFF
 1 NI             30    50    25 FE001 GS000
@N RESIDUES    RIPCN RTIME RIDEP
 1 RE            100     1    20
@N HARVEST     HFRST HLAST HPCNP HPCNR
 1 HA              0 81365   100     0



