*EXP.DETAILS: UFGA8601BN 2 CULTIVARS, 5 IRRIGATION TREATMENTS

*GENERAL
@PEOPLE
 HOOGENBOOM,G. BOOTE,K.J. JONES,J.W. HAMMOND,L.C.
@ADDRESS
 UNIVERSITY OF FLORIDA, GAINESVILLE, FL, USA
@SITE
 IRR.PARK,UF.CAMPUS 29.63;-82.37;40.;FLA
@ PAREA  PRNO  PLEN  PLDR  PLSP  PLAY HAREA  HRNO  HLEN  HARM.........
    -99   -99   -99   -99   -99   -99   -99   -99   -99   -99

*TREATMENTS                        -------------FACTOR LEVELS------------
@N R O C TNAME.................... CU FL SA IC MP MI MF MR MC MT ME MH SM
 1 1 0 0 PORRILLO SINTETICO DAILY   1  1  0  1  1  1  0  0  0  0  0  0  1
 2 1 0 0 PORRILLO SINTETICO 4TH DA  1  1  0  1  1  2  0  0  0  0  0  0  1
 3 1 0 0 PORRILLO SINTETICO 8TH DA  1  1  0  1  1  3  0  0  0  0  0  0  1
 4 1 0 0 PORRILLO SINTETICO   SPEC  1  1  0  1  1  4  0  0  0  0  0  0  1
 5 1 0 0 PORRILLO SINTETICO RAINFE  1  1  0  1  1  5  0  0  0  0  0  0  1
 6 1 0 0 BAT 477 DAILY IRRIGATION   2  1  0  1  1  1  0  0  0  0  0  0  1
 7 1 0 0 BAT 477 4TH DAY IRRIGATIO  2  1  0  1  1  2  0  0  0  0  0  0  1
 8 1 0 0 BAT 477 8TH DAY IRRIGATIO  2  1  0  1  1  3  0  0  0  0  0  0  1
 9 1 0 0 BAT 477 SPECIAL IRRIGATIO  2  1  0  1  1  4  0  0  0  0  0  0  1
10 1 0 0 BAT 477 RAINFED (NONIRRIG  2  1  0  1  1  5  0  0  0  0  0  0  1

*CULTIVARS
@C CR INGENO CNAME
 1 BN IB0001 Porrillo Sintetico
 2 BN IB0002 BAT 477

*FIELDS
@L ID_FIELD WSTA....  FLSA  FLOB  FLDT  FLDD  FLDS  FLST SLTX  SLDP  ID_SOIL    FLNAME
 1 UFGA0001 UFGA8601     0     0 DR000     0     0 00000 VFSA   180  IBBN910015 -99
@L ...........XCRD ...........YCRD .....ELEV .............AREA .SLEN .FLWR .SLAS FLHST FHDUR
 1               0               0         0                 0     0     0     0   -99   -99

*INITIAL CONDITIONS
@C   PCR ICDAT  ICRT  ICND  ICRN  ICRE  ICWD ICRES ICREN ICREP ICRIP ICRID ICNAME
 1    BN 86083     1   -99     1     1     0     0     0     0   100    15 -99
@C  ICBL  SH2O  SNH4  SNO3
 1     5  .086    .6   1.5
 1    15  .086    .6   1.5
 1    30  .086    .6   1.5
 1    45  .086    .6   1.5
 1    60  .086    .6   1.5
 1    90  .076    .6    .6
 1   120  .076    .6    .5
 1   150   .13    .6    .5
 1   180  .258    .6    .5

*PLANTING DETAILS
@P PDATE EDATE  PPOP  PPOE  PLME  PLDS  PLRS  PLRD  PLDP  PLWT  PAGE  PENV  PLPH  SPRL                        PLNAME
 1 86084   -99  32.3  32.3     S     R    61     0     2   -99   -99   -99   -99     0                        -99

*IRRIGATION AND WATER MANAGEMENT
@I  EFIR  IDEP  ITHR  IEPT  IOFF  IAME  IAMT IRNAME
 1   .75   -99   -99   -99   -99   -99   -99 -99
@I IDATE  IROP IRVAL
 1 86083 IR001    12
 1 86085 IR001     6
 1 86087 IR001     6
 1 86090 IR001     7
 1 86092 IR001     6
 1 86094 IR001    12
 1 86098 IR001    10
 1 86101 IR001    10
 1 86106 IR001    10
 1 86108 IR001    12
 1 86111 IR001    12
 1 86115 IR001    21
 1 86118 IR001    19
 1 86121 IR001    30
 1 86122 IR001     7
 1 86123 IR001    10
 1 86124 IR001     2
 1 86125 IR001    19
 1 86126 IR001    10
 1 86127 IR001    10
 1 86128 IR001    10
 1 86129 IR001    10
 1 86130 IR001    10
 1 86131 IR001    10
 1 86132 IR001    11
 1 86133 IR001    10
 1 86134 IR001    10
 1 86135 IR001    10
 1 86136 IR001    10
 1 86137 IR001    10
 1 86138 IR001    10
 1 86139 IR001    10
 1 86142 IR001    10
 1 86143 IR001    10
 1 86144 IR001    10
 1 86145 IR001    10
 1 86146 IR001    10
 1 86147 IR001    10
 1 86148 IR001    10
 1 86149 IR001    10
 1 86150 IR001    10
 1 86151 IR001    10
 1 86152 IR001    10
 1 86153 IR001    10
 1 86154 IR001     6
 1 86155 IR001    10
 1 86156 IR001    10
 1 86157 IR001    10
 1 86159 IR001    20
 1 86162 IR001    20
@I  EFIR  IDEP  ITHR  IEPT  IOFF  IAME  IAMT IRNAME
 2   .75   -99   -99   -99   -99   -99   -99 -99
@I IDATE  IROP IRVAL
 2 86083 IR001    12
 2 86085 IR001     6
 2 86087 IR001     6
 2 86090 IR001     7
 2 86092 IR001     6
 2 86094 IR001    12
 2 86098 IR001    10
 2 86101 IR001    10
 2 86106 IR001    10
 2 86108 IR001    12
 2 86111 IR001    12
 2 86115 IR001    21
 2 86118 IR001    19
 2 86121 IR001    30
 2 86125 IR001    38
 2 86129 IR001    44
 2 86133 IR001    38
 2 86137 IR001    44
 2 86145 IR001    44
 2 86149 IR001    44
 2 86150 IR001    10
 2 86157 IR001    38
 2 86162 IR001    44
@I  EFIR  IDEP  ITHR  IEPT  IOFF  IAME  IAMT IRNAME
 3   .75   -99   -99   -99   -99   -99   -99 -99
@I IDATE  IROP IRVAL
 3 86083 IR001    12
 3 86085 IR001     6
 3 86087 IR001     6
 3 86090 IR001     7
 3 86092 IR001     6
 3 86094 IR001    12
 3 86098 IR001    10
 3 86101 IR001    10
 3 86106 IR001    10
 3 86108 IR001    12
 3 86111 IR001    12
 3 86115 IR001    21
 3 86118 IR001    19
 3 86121 IR001    30
 3 86129 IR001    63
 3 86137 IR001    63
 3 86149 IR001    63
 3 86162 IR001    63
@I  EFIR  IDEP  ITHR  IEPT  IOFF  IAME  IAMT IRNAME
 4   .75   -99   -99   -99   -99   -99   -99 -99
@I IDATE  IROP IRVAL
 4 86083 IR001    12
 4 86085 IR001     6
 4 86087 IR001     6
 4 86090 IR001     7
 4 86092 IR001     6
 4 86094 IR001    12
 4 86098 IR001    10
 4 86101 IR001    10
 4 86106 IR001    10
 4 86108 IR001    12
 4 86111 IR001    12
 4 86115 IR001    21
 4 86118 IR001    19
 4 86121 IR001    30
 4 86125 IR001     8
 4 86126 IR001     9
 4 86127 IR001    12
 4 86128 IR001     7
 4 86129 IR001     7
 4 86130 IR001     7
 4 86131 IR001     6
 4 86132 IR001     4
 4 86133 IR001     4
 4 86134 IR001     4
 4 86135 IR001     4
 4 86136 IR001     8
 4 86137 IR001     7
 4 86138 IR001     5
 4 86139 IR001     8
 4 86140 IR001    25
@I  EFIR  IDEP  ITHR  IEPT  IOFF  IAME  IAMT IRNAME
 5   .75   -99   -99   -99   -99   -99   -99 -99
@I IDATE  IROP IRVAL
 5 86083 IR001    12
 5 86085 IR001     6
 5 86087 IR001     6
 5 86090 IR001     7
 5 86092 IR001     6
 5 86094 IR001    12

*SIMULATION CONTROLS
@N GENERAL     NYERS NREPS START SDATE RSEED SNAME.................... SMODEL
 1 GE              1     1     S 86083  2150 2 CULTIVARS, 5 IRRIGATIO
@N OPTIONS     WATER NITRO SYMBI PHOSP POTAS DISES  CHEM  TILL   CO2
 1 OP              Y     Y     Y     N     N     N     N     N     M
@N METHODS     WTHER INCON LIGHT EVAPO INFIL PHOTO HYDRO NSWIT MESOM MESEV MESOL
 1 ME              M     M     E     R     S     L     R     1     G     S     2
@N MANAGEMENT  PLANT IRRIG FERTI RESID HARVS
 1 MA              R     R     R     R     M
@N OUTPUTS     FNAME OVVEW SUMRY FROPT GROUT CAOUT WAOUT NIOUT MIOUT DIOUT VBOSE CHOUT OPOUT
 1 OU              N     Y     Y     1     Y     Y     Y     Y     N     N     Y     N     N

@  AUTOMATIC MANAGEMENT
@N PLANTING    PFRST PLAST PH2OL PH2OU PH2OD PSTMX PSTMN
 1 PL          86077 86091    40   100    30    40    10
@N IRRIGATION  IMDEP ITHRL ITHRU IROFF IMETH IRAMT IREFF
 1 IR             30    50   100 GS000 IR001    10   .75
@N NITROGEN    NMDEP NMTHR NAMNT NCODE NAOFF
 1 NI             30    50    25 FE001 GS000
@N RESIDUES    RIPCN RTIME RIDEP
 1 RE            100     1    20
@N HARVEST     HFRST HLAST HPCNP HPCNR
 1 HA              0 87084   100     0
