*EXP.DETAILS: CORD8601FB 1986 FABABEAN, IRRIGATED, +N; N2

*GENERAL
@PEOPLE
 F. SAU & M.I. MINGUEZ
@ADDRESS
-99
@SITE
 CORD (SPAIN)
@NOTES
SOIL WATER AND RLD ALSO

*TREATMENTS                        -------------FACTOR LEVELS------------
@N R O C TNAME.................... CU FL SA IC MP MI MF MR MC MT ME MH SM
 1 0 0 0 86 R IR N2 FIX, ALAMEDA    1  1  0  1  1  1  0  0  0  0  0  0  1
 2 0 0 0 86 R IR N FERTIL,ALAMEDA   1  1  0  1  2  2  1  0  0  0  0  0  1

*CULTIVARS
@C CR INGENO CNAME
 1 FB CORD01 ALAMEDA

*FIELDS
@L ID_FIELD WSTA....  FLSA  FLOB  FLDT  FLDD  FLDS  FLST SLTX  SLDP  ID_SOIL    FLNAME
 1 LUGO0001 CORD8601     0     0     0     0     0    0S LO     200  CORD860001 -99
@L ...........XCRD ...........YCRD .....ELEV .............AREA .SLEN .FLWR .SLAS FLHST FHDUR
 1               0               0        90                 0     0     0     0   -99   -99

*INITIAL CONDITIONS
@C   PCR ICDAT  ICRT  ICND  ICRN  ICRE  ICWD ICRES ICREN ICREP ICRIP ICRID ICNAME
 1   -99   -99     0     0     1     1   -99     0     0     0   100    15 -99
@C  ICBL  SH2O  SNH4  SNO3
 1     5   .19     1  10.6
 1    15    .2     1   7.4
 1    45   .15    .2   1.3
 1    75   .13    .2   1.1
 1   105   .16    .2   1.1
 1   135   .09    .2   1.1
 1   165   .08    .2   1.1
 1   195   .13    .2   1.1

*PLANTING DETAILS
@P PDATE EDATE  PPOP  PPOE  PLME  PLDS  PLRS  PLRD  PLDP  PLWT  PAGE  PENV  PLPH  SPRL                        PLNAME
 1 86344   -99    18    18     S     R    70    90   2.5   -99   -99   -99   -99     0                        -99
 2 86344   -99  17.5  17.5     S     R    70    90   2.5   -99   -99   -99   -99     0                        -99

*IRRIGATION AND WATER MANAGEMENT
@I  EFIR  IDEP  ITHR  IEPT  IOFF  IAME  IAMT IRNAME
 1     1   -99   -99   -99   -99   -99   -99 -99
@I IDATE  IROP IRVAL
 1 87075 IR005  46.4
 1 87089 IR005  39.7
 1 87110 IR005  57.6
 1 87124 IR005  58.5
 1 87128 IR005  36.8
@I  EFIR  IDEP  ITHR  IEPT  IOFF  IAME  IAMT IRNAME
 2     1   -99   -99   -99   -99   -99   -99 -99
@I IDATE  IROP IRVAL
 2 87075 IR005    46
 2 87089 IR005  39.4
 2 87110 IR005  60.2
 2 87124 IR005  61.9
 2 87128 IR005    35

*FERTILIZERS (INORGANIC)
@F FDATE  FMCD  FACD  FDEP  FAMN  FAMP  FAMK  FAMC  FAMO  FOCD FERNAME
 1 86344 FE005 AP002    10   100     0     0     0     0   -99 -99
 1 87052 FE005 AP001    10    50     0     0     0     0   -99 -99
 1 87086 FE005 AP001    10    50     0     0     0     0   -99 -99

*SIMULATION CONTROLS
@N GENERAL     NYERS NREPS START SDATE RSEED SNAME.................... SMODEL
 1 GE              1     1     S 86344  2150 DEFAULT SIMULATION CONTR
@N OPTIONS     WATER NITRO SYMBI PHOSP POTAS DISES  CHEM  TILL   CO2
 1 OP              Y     Y     Y     N     N     N     N     N     M
@N METHODS     WTHER INCON LIGHT EVAPO INFIL PHOTO HYDRO NSWIT MESOM MESEV MESOL
 1 ME              M     M     E     R     S     L     R     1     G     S     3
@N MANAGEMENT  PLANT IRRIG FERTI RESID HARVS
 1 MA              R     R     R     N     M
@N OUTPUTS     FNAME OVVEW SUMRY FROPT GROUT CAOUT WAOUT NIOUT MIOUT DIOUT VBOSE CHOUT OPOUT
 1 OU              N     Y     Y     1     Y     Y     Y     Y     N     N     Y     N     N

@  AUTOMATIC MANAGEMENT
@N PLANTING    PFRST PLAST PH2OL PH2OU PH2OD PSTMX PSTMN
 1 PL          86143 86157    40   100    30    40    10
@N IRRIGATION  IMDEP ITHRL ITHRU IROFF IMETH IRAMT IREFF
 1 IR             30    50   100 GS000 IR001    10     1
@N NITROGEN    NMDEP NMTHR NAMNT NCODE NAOFF
 1 NI             30    50    25 FE001 GS000
@N RESIDUES    RIPCN RTIME RIDEP
 1 RE            100     1    20
@N HARVEST     HFRST HLAST HPCNP HPCNR
 1 HA              0 95150   100     0



