*EXP.DETAILS: CORD8701FB 1987 FABABEAN, IRRIGATED, +N; N2

*GENERAL
@PEOPLE
 F. SAU & M.I. MINGUEZ
@ADDRESS
-99
@SITE
 CORD (SPAIN)

*TREATMENTS                        -------------FACTOR LEVELS------------
@N R O C TNAME.................... CU FL SA IC MP MI MF MR MC MT ME MH SM
 1 0 0 0 87 N2 FIX, ALAMEDA IRR     1  1  0  1  1  1  0  0  0  0  0  0  1
 2 0 0 0 87 N FERTIL, ALAMEDA IRR   1  1  0  1  2  2  1  0  0  0  0  0  1
 3 0 0 0 87 N2 FIX, BROCAL IRR      2  1  0  1  3  3  0  0  0  0  0  0  1
 4 0 0 0 87 N FERTIL, BROCAL IRR    2  1  0  1  4  4  1  0  0  0  0  0  1

*CULTIVARS
@C CR INGENO CNAME
 1 FB CORD01 ALAMEDA
 2 FB CORD02 BROCAL

*FIELDS
@L ID_FIELD WSTA....  FLSA  FLOB  FLDT  FLDD  FLDS  FLST SLTX  SLDP  ID_SOIL    FLNAME
 1 LUGO0001 CORD         0     0     0     0     0    0S LO     200  CORD870001 -99
@L ...........XCRD ...........YCRD .....ELEV .............AREA .SLEN .FLWR .SLAS FLHST FHDUR
 1               0               0        90                 0     0     0     0   -99   -99

*INITIAL CONDITIONS
@C   PCR ICDAT  ICRT  ICND  ICRN  ICRE  ICWD ICRES ICREN ICREP ICRIP ICRID ICNAME
 1   -99   -99     0     0     1     1   -99     0     0     0   100    15 -99
@C  ICBL  SH2O  SNH4  SNO3
 1     5   .27     1  10.6
 1    15   .27     1   7.4
 1    30   .27    .2   1.3
 1    45   .27    .2   1.3
 1    75   .27    .2   1.1
 1   105   .23    .2   1.1
 1   135   .22    .2   1.1
 1   165   .22    .2   1.1
 1   195   .22    .2   1.1

*PLANTING DETAILS
@P PDATE EDATE  PPOP  PPOE  PLME  PLDS  PLRS  PLRD  PLDP  PLWT  PAGE  PENV  PLPH  SPRL                        PLNAME
 1 87358   -99  30.4  30.4     S     R    60     0   2.5   -99   -99   -99   -99     0                        -99
 2 87358   -99  32.3  32.3     S     R    60     0   2.5   -99   -99   -99   -99     0                        -99
 3 87358   -99  33.3  33.3     S     R    60     0   2.5   -99   -99   -99   -99     0                        -99
 4 87358   -99    36    36     S     R    60     0   2.5   -99   -99   -99   -99     0                        -99

*IRRIGATION AND WATER MANAGEMENT
@I  EFIR  IDEP  ITHR  IEPT  IOFF  IAME  IAMT IRNAME
 1     1   -99   -99   -99   -99   -99   -99 -99
@I IDATE  IROP IRVAL
 1 88071 IR005  25.7
 1 88088 IR005  32.8
 1 88111 IR005    49
 1 88140 IR005  34.1
 1 88152 IR005  52.4
@I  EFIR  IDEP  ITHR  IEPT  IOFF  IAME  IAMT IRNAME
 2     1   -99   -99   -99   -99   -99   -99 -99
@I IDATE  IROP IRVAL
 2 88071 IR005  23.5
 2 88088 IR005  27.1
 2 88111 IR005  48.7
 2 88140 IR005  34.1
 2 88152 IR005  50.4
@I  EFIR  IDEP  ITHR  IEPT  IOFF  IAME  IAMT IRNAME
 3     1   -99   -99   -99   -99   -99   -99 -99
@I IDATE  IROP IRVAL
 3 88071 IR005  18.5
 3 88088 IR005  28.4
 3 88111 IR005  51.9
 3 88140 IR005  35.4
 3 88152 IR005    53
@I  EFIR  IDEP  ITHR  IEPT  IOFF  IAME  IAMT IRNAME
 4     1   -99   -99   -99   -99   -99   -99 -99
@I IDATE  IROP IRVAL
 4 88071 IR005  27.3
 4 88088 IR005  43.4
 4 88111 IR005  61.1
 4 88140 IR005  51.8
 4 88152 IR005  60.9

*FERTILIZERS (INORGANIC)
@F FDATE  FMCD  FACD  FDEP  FAMN  FAMP  FAMK  FAMC  FAMO  FOCD FERNAME
 1 87358 FE005 AP002    10   100     0     0     0     0   -99 -99
 1 88046 FE005 AP001    10   100     0     0     0     0   -99 -99
 1 88109 FE005 AP001    10   100     0     0     0     0   -99 -99

*SIMULATION CONTROLS
@N GENERAL     NYERS NREPS START SDATE RSEED SNAME.................... SMODEL
 1 GE              1     1     S 87358  2150 DEFAULT SIMULATION CONTR
@N OPTIONS     WATER NITRO SYMBI PHOSP POTAS DISES  CHEM  TILL   CO2
 1 OP              Y     Y     Y     N     N     N     N     N     M
@N METHODS     WTHER INCON LIGHT EVAPO INFIL PHOTO HYDRO NSWIT MESOM MESEV MESOL
 1 ME              M     M     E     R     S     L     R     1     G     S     3
@N MANAGEMENT  PLANT IRRIG FERTI RESID HARVS
 1 MA              R     R     R     N     M
@N OUTPUTS     FNAME OVVEW SUMRY FROPT GROUT CAOUT WAOUT NIOUT MIOUT DIOUT VBOSE CHOUT OPOUT
 1 OU              N     Y     Y     1     Y     Y     Y     Y     N     N     Y     N     N

@  AUTOMATIC MANAGEMENT
@N PLANTING    PFRST PLAST PH2OL PH2OU PH2OD PSTMX PSTMN
 1 PL          86143 86157    40   100    30    40    10
@N IRRIGATION  IMDEP ITHRL ITHRU IROFF IMETH IRAMT IREFF
 1 IR             30    50   100 GS000 IR001    10     1
@N NITROGEN    NMDEP NMTHR NAMNT NCODE NAOFF
 1 NI             30    50    25 FE001 GS000
@N RESIDUES    RIPCN RTIME RIDEP
 1 RE            100     1    20
@N HARVEST     HFRST HLAST HPCNP HPCNR
 1 HA              0 95150   100     0



