*EXP.DETAILS: IBPF8601CB PULEHU EXP. FARM, MAUI, HI

*GENERAL
@PEOPLE
H. IKAWA
@ADDRESS
UNIVERSITY OF HAWAII
@SITE
PULEHU EXP. FARM, MAUI, HAWAII
@ PAREA  PRNO  PLEN  PLDR  PLSP  PLAY HAREA  HRNO  HLEN  HARM.........
    -99   -99   -99   -99   -99   -99   -99   -99   -99   -99

*TREATMENTS                        -------------FACTOR LEVELS------------
@N R O C TNAME.................... CU FL SA IC MP MI MF MR MC MT ME MH SM
 1 1 0 0 JAN   46 CM ROWSPACE       1  1  0  1  1  0  0  0  0  0  0  1  1
 2 1 0 0 JAN   53 CM ROWSPACE       1  1  0  1  2  0  0  0  0  0  0  1  1
 3 1 0 0 JAN   61 CM ROWSPACE       1  1  0  1  3  0  0  0  0  0  0  1  1
 4 1 0 0 FEB   46 CM ROWSPACE       1  1  0  1  4  0  0  0  0  0  0  2  2
 5 1 0 0 FEB   53 CM ROWSPACE       1  1  0  1  5  0  0  0  0  0  0  2  2
 6 1 0 0 FEB   61 CM ROWSPACE       1  1  0  1  6  0  0  0  0  0  0  2  2
 7 1 0 0 MAR   46 CM ROWSPACE       1  1  0  1  7  0  0  0  0  0  0  3  3
 8 1 0 0 MAR   53 CM ROWSPACE       1  1  0  1  8  0  0  0  0  0  0  3  3
 9 1 0 0 MAR   61 CM ROWSPACE       1  1  0  1  9  0  0  0  0  0  0  3  3
10 1 0 0 APR   46 CM ROWSPACE       1  1  0  1 10  0  0  0  0  0  0  4  4
11 1 0 0 APR   53 CM ROWSPACE       1  1  0  1 11  0  0  0  0  0  0  4  4
12 1 0 0 APR   61 CM ROWSPACE       1  1  0  1 12  0  0  0  0  0  0  4  4
13 1 0 0 MAY   46 CM ROWSPACE       1  1  0  1 13  0  0  0  0  0  0  5  5
14 1 0 0 MAY   53 CM ROWSPACE       1  1  0  1 14  0  0  0  0  0  0  5  5
15 1 0 0 MAY   61 CM ROWSPACE       1  1  0  1 15  0  0  0  0  0  0  5  5
16 1 0 0 JUNE  46 CM ROWSPACE       1  1  0  1 16  0  0  0  0  0  0  6  6
17 1 0 0 JUNE  53 CM ROWSPACE       1  1  0  1 17  0  0  0  0  0  0  6  6
18 1 0 0 JUNE  61 CM ROWSPACE       1  1  0  1 18  0  0  0  0  0  0  6  6
19 1 0 0 JULY  46 CM ROWSPACE       1  1  0  1 19  0  0  0  0  0  0  7  7
20 1 0 0 JULY  53 CM ROWSPACE       1  1  0  1 20  0  0  0  0  0  0  7  7
21 1 0 0 JULY  61 CM ROWSPACE       1  1  0  1 21  0  0  0  0  0  0  7  7
22 1 0 0 AUG   46 CM ROWSPACE       1  1  0  1 22  0  0  0  0  0  0  8  8
23 1 0 0 AUG   53 CM ROWSPACE       1  1  0  1 23  0  0  0  0  0  0  8  8
24 1 0 0 AUG   61 CM ROWSPACE       1  1  0  1 24  0  0  0  0  0  0  8  8
25 1 0 0 SEP86 46 CM ROWSPACE       1  1  0  1 25  0  0  0  0  0  0  9  9
26 1 0 0 SEP86 53 CM ROWSPACE       1  1  0  1 26  0  0  0  0  0  0  9  9
27 1 0 0 SEP86 61 CM ROWSPACE       1  1  0  1 27  0  0  0  0  0  0  9  9
28 1 0 0 OCT86 46 CM ROWSPACE       1  1  0  1 28  0  0  0  0  0  0 10 10
29 1 0 0 OCT86 53 CM ROWSPACE       1  1  0  1 29  0  0  0  0  0  0 10 10
30 1 0 0 OCT86 61 CM ROWSPACE       1  1  0  1 30  0  0  0  0  0  0 10 10

*CULTIVARS
@C CR INGENO CNAME
 1 CB 990002 CG

*FIELDS
@L ID_FIELD WSTA....  FLSA  FLOB  FLDT  FLDD  FLDS  FLST SLTX  SLDP  ID_SOIL    FLNAME
 1 IBPF8601 IBPF       -99     0 DR000     0     0 00000 -99    160  IB00830003 -99
@L ...........XCRD ...........YCRD .....ELEV .............AREA .SLEN .FLWR .SLAS FLHST FHDUR
 1             -99             -99       -99               -99   -99   -99   -99   -99   -99

*INITIAL CONDITIONS
@C   PCR ICDAT  ICRT  ICND  ICRN  ICRE  ICWD ICRES ICREN ICREP ICRIP ICRID ICNAME
 1    SB 86014     1     0     1     1   -99   -99   -99   -99   -99   -99 -99
@C  ICBL  SH2O  SNH4  SNO3
 1    31  .239     3     3
 1    46  .222     3     3
 1    58  .221     2     2
 1    88  .233     1     1
 1   160  .239     1     1

*PLANTING DETAILS
@P PDATE EDATE  PPOP  PPOE  PLME  PLDS  PLRS  PLRD  PLDP  PLWT  PAGE  PENV  PLPH  SPRL                        PLNAME
 1 86014   -99   5.7   5.7     T     R    46     0     5   9.5    13  22.2   -99   -99                        -99
 2 86014   -99   4.9   4.9     T     R    53     0     5   9.5    13  22.2   -99   -99                        -99
 3 86014   -99   4.3   4.3     T     R    61     0     5   9.5    13  22.2   -99   -99                        -99
 4 86044   -99   5.7   5.7     T     R    46     0     5   9.5    13  22.2   -99   -99                        -99
 5 86044   -99   4.9   4.9     T     R    53     0     5   9.5    13  22.2   -99   -99                        -99
 6 86044   -99   4.3   4.3     T     R    61     0     5   9.5    13  22.2   -99   -99                        -99
 7 86079   -99   5.7   5.7     T     R    46     0     5   9.5    13  22.2   -99   -99                        -99
 8 86079   -99   4.9   4.9     T     R    53     0     5   9.5    13  22.2   -99   -99                        -99
 9 86079   -99   4.3   4.3     T     R    61     0     5   9.5    13  22.2   -99   -99                        -99
10 86106   -99   5.7   5.7     T     R    46     0     5   9.5    13  22.2   -99   -99                        -99
11 86106   -99   4.9   4.9     T     R    53     0     5   9.5    13  22.2   -99   -99                        -99
12 86106   -99   4.3   4.3     T     R    61     0     5   9.5    13  22.2   -99   -99                        -99
13 86134   -99   5.7   5.7     T     R    46     0     5   9.5    13  22.2   -99   -99                        -99
14 86134   -99   4.9   4.9     T     R    53     0     5   9.5    13  22.2   -99   -99                        -99
15 86134   -99   4.3   4.3     T     R    61     0     5   9.5    13  22.2   -99   -99                        -99
16 86163   -99   5.7   5.7     T     R    46     0     5   9.5    13  22.2   -99   -99                        -99
17 86163   -99   4.9   4.9     T     R    53     0     5   9.5    13  22.2   -99   -99                        -99
18 86163   -99   4.3   4.3     T     R    61     0     5   9.5    13  22.2   -99   -99                        -99
19 86196   -99   5.7   5.7     T     R    46     0     5   9.5    13  22.2   -99   -99                        -99
20 86196   -99   4.9   4.9     T     R    53     0     5   9.5    13  22.2   -99   -99                        -99
21 86196   -99   4.3   4.3     T     R    61     0     5   9.5    13  22.2   -99   -99                        -99
22 86224   -99   5.7   5.7     T     R    46     0     5   9.5    13  22.2   -99   -99                        -99
23 86224   -99   4.9   4.9     T     R    53     0     5   9.5    13  22.2   -99   -99                        -99
24 86224   -99   4.3   4.3     T     R    61     0     5   9.5    13  22.2   -99   -99                        -99
25 86252   -99   5.7   5.7     T     R    46     0     5   9.5    13  22.2   -99   -99                        -99
26 86252   -99   4.9   4.9     T     R    53     0     5   9.5    13  22.2   -99   -99                        -99
27 86252   -99   4.3   4.3     T     R    61     0     5   9.5    13  22.2   -99   -99                        -99
28 86289   -99   5.7   5.7     T     R    46     0     5   9.5    13  22.2   -99   -99                        -99
29 86289   -99   4.9   4.9     T     R    53     0     5   9.5    13  22.2   -99   -99                        -99
30 86289   -99   4.3   4.3     T     R    61     0     5   9.5    13  22.2   -99   -99                        -99

*FERTILIZERS (INORGANIC)
@F FDATE  FMCD  FACD  FDEP  FAMN  FAMP  FAMK  FAMC  FAMO  FOCD FERNAME
 1 97015 FE005   -99     3   189   -99   -99   -99   -99   -99 -99
 1 97052 FE005   -99     1   189   -99   -99   -99   -99   -99 -99

*HARVEST DETAILS
@H HDATE  HSTG  HCOM HSIZE   HPC  HBPC HNAME
 1 86091 GS000   -99   -99   -99   -99 
 2 86114 GS000   -99   -99   -99   -99 
 3 86147 GS000   -99   -99   -99   -99 
 4 86169 GS000   -99   -99   -99   -99 
 5 86209 GS000   -99   -99   -99   -99 
 6 86223 GS000   -99   -99   -99   -99 
 7 86258 GS000   -99   -99   -99   -99 
 8 86279 GS000   -99   -99   -99   -99 
 9 86314 GS000   -99   -99   -99   -99 
10 86356 GS000   -99   -99   -99   -99 

*SIMULATION CONTROLS
@N GENERAL     NYERS NREPS START SDATE RSEED SNAME.................... SMODEL
 1 GE              1     1     S 86014  2150 JAN CG NO-STRESS
@N OPTIONS     WATER NITRO SYMBI PHOSP POTAS DISES  CHEM  TILL   CO2
 1 OP              N     N     N     N     N     N     N     N     M
@N METHODS     WTHER INCON LIGHT EVAPO INFIL PHOTO HYDRO NSWIT MESOM MESEV MESOL
 1 ME              M     M     E     R     S     L     R     1     G     S     2
@N MANAGEMENT  PLANT IRRIG FERTI RESID HARVS
 1 MA              R     N     N     N     R
@N OUTPUTS     FNAME OVVEW SUMRY FROPT GROUT CAOUT WAOUT NIOUT MIOUT DIOUT VBOSE CHOUT OPOUT
 1 OU              N     Y     Y     5     Y     N     Y     Y     N     N     Y     N     N

@  AUTOMATIC MANAGEMENT
@N PLANTING    PFRST PLAST PH2OL PH2OU PH2OD PSTMX PSTMN
 1 PL          98155 98200    40   100    30    40    10
@N IRRIGATION  IMDEP ITHRL ITHRU IROFF IMETH IRAMT IREFF
 1 IR             30    50   100 GS000 IR001    10   .75
@N NITROGEN    NMDEP NMTHR NAMNT NCODE NAOFF
 1 NI             30    50    25 FE001 GS000
@N RESIDUES    RIPCN RTIME RIDEP
 1 RE            100     1    20
@N HARVEST     HFRST HLAST HPCNP HPCNR
 1 HA              0 86365   100     0

@N GENERAL     NYERS NREPS START SDATE RSEED SNAME.................... SMODEL
 2 GE              1     1     S 86044  2150 FEB CG NO-STRESS
@N OPTIONS     WATER NITRO SYMBI PHOSP POTAS DISES  CHEM  TILL   CO2
 2 OP              N     N     N     N     N     N     N     N     M
@N METHODS     WTHER INCON LIGHT EVAPO INFIL PHOTO HYDRO NSWIT MESOM MESEV MESOL
 2 ME              M     M     E     R     S     L     R     1     G     S     2
@N MANAGEMENT  PLANT IRRIG FERTI RESID HARVS
 2 MA              R     N     N     N     R
@N OUTPUTS     FNAME OVVEW SUMRY FROPT GROUT CAOUT WAOUT NIOUT MIOUT DIOUT VBOSE CHOUT OPOUT
 2 OU              N     Y     Y     5     Y     N     Y     Y     N     N     Y     N     N

@  AUTOMATIC MANAGEMENT
@N PLANTING    PFRST PLAST PH2OL PH2OU PH2OD PSTMX PSTMN
 2 PL          98155 98200    40   100    30    40    10
@N IRRIGATION  IMDEP ITHRL ITHRU IROFF IMETH IRAMT IREFF
 2 IR             30    50   100 GS000 IR001    10   .75
@N NITROGEN    NMDEP NMTHR NAMNT NCODE NAOFF
 2 NI             30    50    25 FE001 GS000
@N RESIDUES    RIPCN RTIME RIDEP
 2 RE            100     1    20
@N HARVEST     HFRST HLAST HPCNP HPCNR
 2 HA              0 86365   100     0

@N GENERAL     NYERS NREPS START SDATE RSEED SNAME.................... SMODEL
 3 GE              1     1     S 86079  2150 MAR CG NO-STRESS
@N OPTIONS     WATER NITRO SYMBI PHOSP POTAS DISES  CHEM  TILL   CO2
 3 OP              N     N     N     N     N     N     N     N     M
@N METHODS     WTHER INCON LIGHT EVAPO INFIL PHOTO HYDRO NSWIT MESOM MESEV MESOL
 3 ME              M     M     E     R     S     L     R     1     G     S     2
@N MANAGEMENT  PLANT IRRIG FERTI RESID HARVS
 3 MA              R     N     N     N     R
@N OUTPUTS     FNAME OVVEW SUMRY FROPT GROUT CAOUT WAOUT NIOUT MIOUT DIOUT VBOSE CHOUT OPOUT
 3 OU              N     Y     Y     5     Y     N     Y     Y     N     N     Y     N     N

@  AUTOMATIC MANAGEMENT
@N PLANTING    PFRST PLAST PH2OL PH2OU PH2OD PSTMX PSTMN
 3 PL          98155 98200    40   100    30    40    10
@N IRRIGATION  IMDEP ITHRL ITHRU IROFF IMETH IRAMT IREFF
 3 IR             30    50   100 GS000 IR001    10   .75
@N NITROGEN    NMDEP NMTHR NAMNT NCODE NAOFF
 3 NI             30    50    25 FE001 GS000
@N RESIDUES    RIPCN RTIME RIDEP
 3 RE            100     1    20
@N HARVEST     HFRST HLAST HPCNP HPCNR
 3 HA              0 86365   100     0

@N GENERAL     NYERS NREPS START SDATE RSEED SNAME.................... SMODEL
 4 GE              1     1     S 86106  2150 APR CG NO-STRESS
@N OPTIONS     WATER NITRO SYMBI PHOSP POTAS DISES  CHEM  TILL   CO2
 4 OP              N     N     N     N     N     N     N     N     M
@N METHODS     WTHER INCON LIGHT EVAPO INFIL PHOTO HYDRO NSWIT MESOM MESEV MESOL
 4 ME              M     M     E     R     S     L     R     1     G     S     2
@N MANAGEMENT  PLANT IRRIG FERTI RESID HARVS
 4 MA              R     N     N     N     R
@N OUTPUTS     FNAME OVVEW SUMRY FROPT GROUT CAOUT WAOUT NIOUT MIOUT DIOUT VBOSE CHOUT OPOUT
 4 OU              N     Y     Y     5     Y     N     Y     Y     N     N     Y     N     N

@  AUTOMATIC MANAGEMENT
@N PLANTING    PFRST PLAST PH2OL PH2OU PH2OD PSTMX PSTMN
 4 PL          98155 98200    40   100    30    40    10
@N IRRIGATION  IMDEP ITHRL ITHRU IROFF IMETH IRAMT IREFF
 4 IR             30    50   100 GS000 IR001    10   .75
@N NITROGEN    NMDEP NMTHR NAMNT NCODE NAOFF
 4 NI             30    50    25 FE001 GS000
@N RESIDUES    RIPCN RTIME RIDEP
 4 RE            100     1    20
@N HARVEST     HFRST HLAST HPCNP HPCNR
 4 HA              0 86365   100     0

@N GENERAL     NYERS NREPS START SDATE RSEED SNAME.................... SMODEL
 5 GE              1     1     S 86134  2150 MAY CG NO-STRESS
@N OPTIONS     WATER NITRO SYMBI PHOSP POTAS DISES  CHEM  TILL   CO2
 5 OP              N     N     N     N     N     N     N     N     M
@N METHODS     WTHER INCON LIGHT EVAPO INFIL PHOTO HYDRO NSWIT MESOM MESEV MESOL
 5 ME              M     M     E     R     S     L     R     1     G     S     2
@N MANAGEMENT  PLANT IRRIG FERTI RESID HARVS
 5 MA              R     N     N     N     R
@N OUTPUTS     FNAME OVVEW SUMRY FROPT GROUT CAOUT WAOUT NIOUT MIOUT DIOUT VBOSE CHOUT OPOUT
 5 OU              N     Y     Y     5     Y     N     Y     Y     N     N     Y     N     N

@  AUTOMATIC MANAGEMENT
@N PLANTING    PFRST PLAST PH2OL PH2OU PH2OD PSTMX PSTMN
 5 PL          98155 98200    40   100    30    40    10
@N IRRIGATION  IMDEP ITHRL ITHRU IROFF IMETH IRAMT IREFF
 5 IR             30    50   100 GS000 IR001    10   .75
@N NITROGEN    NMDEP NMTHR NAMNT NCODE NAOFF
 5 NI             30    50    25 FE001 GS000
@N RESIDUES    RIPCN RTIME RIDEP
 5 RE            100     1    20
@N HARVEST     HFRST HLAST HPCNP HPCNR
 5 HA              0 86365   100     0

@N GENERAL     NYERS NREPS START SDATE RSEED SNAME.................... SMODEL
 6 GE              1     1     S 86163  2150 JUN CG NO-STRESS
@N OPTIONS     WATER NITRO SYMBI PHOSP POTAS DISES  CHEM  TILL   CO2
 6 OP              N     N     N     N     N     N     N     N     M
@N METHODS     WTHER INCON LIGHT EVAPO INFIL PHOTO HYDRO NSWIT MESOM MESEV MESOL
 6 ME              M     M     E     R     S     L     R     1     G     S     2
@N MANAGEMENT  PLANT IRRIG FERTI RESID HARVS
 6 MA              R     N     N     N     R
@N OUTPUTS     FNAME OVVEW SUMRY FROPT GROUT CAOUT WAOUT NIOUT MIOUT DIOUT VBOSE CHOUT OPOUT
 6 OU              N     Y     Y     5     Y     N     Y     Y     N     N     Y     N     N

@  AUTOMATIC MANAGEMENT
@N PLANTING    PFRST PLAST PH2OL PH2OU PH2OD PSTMX PSTMN
 6 PL          86155 86200    40   100    30    40    10
@N IRRIGATION  IMDEP ITHRL ITHRU IROFF IMETH IRAMT IREFF
 6 IR             30    50   100 GS000 IR001    10   .75
@N NITROGEN    NMDEP NMTHR NAMNT NCODE NAOFF
 6 NI             30    50    25 FE001 GS000
@N RESIDUES    RIPCN RTIME RIDEP
 6 RE            100     1    20
@N HARVEST     HFRST HLAST HPCNP HPCNR
 6 HA              0 86365   100     0

@N GENERAL     NYERS NREPS START SDATE RSEED SNAME.................... SMODEL
 7 GE              1     1     S 86196  2150 JUL CG NO-STRESS
@N OPTIONS     WATER NITRO SYMBI PHOSP POTAS DISES  CHEM  TILL   CO2
 7 OP              N     N     N     N     N     N     N     N     M
@N METHODS     WTHER INCON LIGHT EVAPO INFIL PHOTO HYDRO NSWIT MESOM MESEV MESOL
 7 ME              M     M     E     R     S     L     R     1     G     S     2
@N MANAGEMENT  PLANT IRRIG FERTI RESID HARVS
 7 MA              R     N     N     N     R
@N OUTPUTS     FNAME OVVEW SUMRY FROPT GROUT CAOUT WAOUT NIOUT MIOUT DIOUT VBOSE CHOUT OPOUT
 7 OU              N     Y     Y     5     Y     N     Y     Y     N     N     Y     N     N

@  AUTOMATIC MANAGEMENT
@N PLANTING    PFRST PLAST PH2OL PH2OU PH2OD PSTMX PSTMN
 7 PL          86155 86200    40   100    30    40    10
@N IRRIGATION  IMDEP ITHRL ITHRU IROFF IMETH IRAMT IREFF
 7 IR             30    50   100 GS000 IR001    10   .75
@N NITROGEN    NMDEP NMTHR NAMNT NCODE NAOFF
 7 NI             30    50    25 FE001 GS000
@N RESIDUES    RIPCN RTIME RIDEP
 7 RE            100     1    20
@N HARVEST     HFRST HLAST HPCNP HPCNR
 7 HA              0 86365   100     0

@N GENERAL     NYERS NREPS START SDATE RSEED SNAME.................... SMODEL
 8 GE              1     1     S 86224  2150 AUG CG NO-STRESS
@N OPTIONS     WATER NITRO SYMBI PHOSP POTAS DISES  CHEM  TILL   CO2
 8 OP              N     N     N     N     N     N     N     N     M
@N METHODS     WTHER INCON LIGHT EVAPO INFIL PHOTO HYDRO NSWIT MESOM MESEV MESOL
 8 ME              M     M     E     R     S     L     R     1     G     S     2
@N MANAGEMENT  PLANT IRRIG FERTI RESID HARVS
 8 MA              R     N     N     N     R
@N OUTPUTS     FNAME OVVEW SUMRY FROPT GROUT CAOUT WAOUT NIOUT MIOUT DIOUT VBOSE CHOUT OPOUT
 8 OU              N     Y     Y     5     Y     N     Y     Y     N     N     Y     N     N

@  AUTOMATIC MANAGEMENT
@N PLANTING    PFRST PLAST PH2OL PH2OU PH2OD PSTMX PSTMN
 8 PL          86155 86200    40   100    30    40    10
@N IRRIGATION  IMDEP ITHRL ITHRU IROFF IMETH IRAMT IREFF
 8 IR             30    50   100 GS000 IR001    10   .75
@N NITROGEN    NMDEP NMTHR NAMNT NCODE NAOFF
 8 NI             30    50    25 FE001 GS000
@N RESIDUES    RIPCN RTIME RIDEP
 8 RE            100     1    20
@N HARVEST     HFRST HLAST HPCNP HPCNR
 8 HA              0 86365   100     0

@N GENERAL     NYERS NREPS START SDATE RSEED SNAME.................... SMODEL
 9 GE              1     1     S 86252  2150 SEP86 CG NO-STRESS
@N OPTIONS     WATER NITRO SYMBI PHOSP POTAS DISES  CHEM  TILL   CO2
 9 OP              N     N     N     N     N     N     N     N     M
@N METHODS     WTHER INCON LIGHT EVAPO INFIL PHOTO HYDRO NSWIT MESOM MESEV MESOL
 9 ME              M     M     E     R     S     L     R     1     G     S     2
@N MANAGEMENT  PLANT IRRIG FERTI RESID HARVS
 9 MA              R     N     N     N     R
@N OUTPUTS     FNAME OVVEW SUMRY FROPT GROUT CAOUT WAOUT NIOUT MIOUT DIOUT VBOSE CHOUT OPOUT
 9 OU              N     Y     Y     5     Y     N     Y     Y     N     N     Y     N     N

@  AUTOMATIC MANAGEMENT
@N PLANTING    PFRST PLAST PH2OL PH2OU PH2OD PSTMX PSTMN
 9 PL          86155 86200    40   100    30    40    10
@N IRRIGATION  IMDEP ITHRL ITHRU IROFF IMETH IRAMT IREFF
 9 IR             30    50   100 GS000 IR001    10   .75
@N NITROGEN    NMDEP NMTHR NAMNT NCODE NAOFF
 9 NI             30    50    25 FE001 GS000
@N RESIDUES    RIPCN RTIME RIDEP
 9 RE            100     1    20
@N HARVEST     HFRST HLAST HPCNP HPCNR
 9 HA              0 86365   100     0

@N GENERAL     NYERS NREPS START SDATE RSEED SNAME.................... SMODEL
10 GE              1     1     S 86289  2150 OCT86 CG NO-STRESS
@N OPTIONS     WATER NITRO SYMBI PHOSP POTAS DISES  CHEM  TILL   CO2
10 OP              N     N     N     N     N     N     N     N     M
@N METHODS     WTHER INCON LIGHT EVAPO INFIL PHOTO HYDRO NSWIT MESOM MESEV MESOL
10 ME              M     M     E     R     S     L     R     1     G     S     2
@N MANAGEMENT  PLANT IRRIG FERTI RESID HARVS
10 MA              R     N     N     N     R
@N OUTPUTS     FNAME OVVEW SUMRY FROPT GROUT CAOUT WAOUT NIOUT MIOUT DIOUT VBOSE CHOUT OPOUT
10 OU              N     Y     Y     5     Y     N     Y     Y     N     N     Y     N     N

@  AUTOMATIC MANAGEMENT
@N PLANTING    PFRST PLAST PH2OL PH2OU PH2OD PSTMX PSTMN
10 PL          86155 86200    40   100    30    40    10
@N IRRIGATION  IMDEP ITHRL ITHRU IROFF IMETH IRAMT IREFF
10 IR             30    50   100 GS000 IR001    10   .75
@N NITROGEN    NMDEP NMTHR NAMNT NCODE NAOFF
10 NI             30    50    25 FE001 GS000
@N RESIDUES    RIPCN RTIME RIDEP
10 RE            100     1    20
@N HARVEST     HFRST HLAST HPCNP HPCNR
10 HA              0 86365   100     0



