*EXP.DETAILS: CPSR9302PT MODEL VALIDATION

*GENERAL
@PEOPLE
-99
@ADDRESS
 CIP
@SITE
 San Ramon, Peru
@ PAREA  PRNO  PLEN  PLDR  PLSP  PLAY HAREA  HRNO  HLEN  HARM.........
    -99   -99   -99   -99   -99   -99   -99   -99   -99   -99

*TREATMENTS                        -------------FACTOR LEVELS------------
@N R O C TNAME.................... CU FL SA IC MP MI MF MR MC MT ME MH SM
 1 1 1 0 Achirana                   1  1  1  1  1  1  1  0  0  0  0  1  1
 2 1 1 0 Atlantic                   2  1  1  1  1  1  1  0  0  0  0  1  1
 4 1 1 0 397077.16                  4  1  1  1  1  1  1  0  0  0  0  1  1

*CULTIVARS
@C CR INGENO CNAME
 1 PT AR0003 ACHIRANA
 2 PT IB0005 ATLANTIC
 4 PT CI0002 CLON7716

*FIELDS
@L ID_FIELD WSTA....  FLSA  FLOB  FLDT  FLDD  FLDS  FLST SLTX  SLDP  ID_SOIL    FLNAME
 1 CPSR9302 CPSR9301   -99   -99   -99   -99   -99   -99 L      -99  CPSR000022 -99
@L ...........XCRD ...........YCRD .....ELEV .............AREA .SLEN .FLWR .SLAS FLHST FHDUR
 1       -75.35639        -11.1275       830               -99   -99   -99   -99   -99   -99

*SOIL ANALYSIS
@A SADAT  SMHB  SMPX  SMKE  SANAME
 1 93213   -99   -99   -99  -99
@A  SABL  SADM  SAOC  SANI SAPHW SAPHB  SAPX  SAKE  SASC
 1    15   1.5   .48   .04   5.5   -99   -99   5.9   -99

*INITIAL CONDITIONS
@C   PCR ICDAT  ICRT  ICND  ICRN  ICRE  ICWD ICRES ICREN ICREP ICRIP ICRID ICNAME
 1   -99 93213   -99   -99   -99   -99   -99   -99   -99   -99   -99   -99 -99
@C  ICBL  SH2O  SNH4  SNO3
 1    30  .128    .8   6.8
 1    60  .139    .8   6.8
 1    90  .155    .8   6.8

*PLANTING DETAILS
@P PDATE EDATE  PPOP  PPOE  PLME  PLDS  PLRS  PLRD  PLDP  PLWT  PAGE  PENV  PLPH  SPRL                        PLNAME
 1 93213 93228 3.333 3.333     S   -99   100   -99     5   444   -99   -99   -99     2                        -99

*IRRIGATION AND WATER MANAGEMENT
@I  EFIR  IDEP  ITHR  IEPT  IOFF  IAME  IAMT IRNAME
 1   -99   -99   -99   -99   -99   -99   -99 -99
@I IDATE  IROP IRVAL
 1 93213 IR004    15
 1 93219 IR004    39
 1 93225 IR004    29
 1 93228 IR004    30
 1 93232 IR004    29
 1 93236 IR004    30
 1 93241 IR004    16
 1 93249 IR004    15
 1 93255 IR004    40
 1 93258 IR004    28
 1 93262 IR004    31
 1 93267 IR004    31
 1 93271 IR004    30
 1 93277 IR004    31
 1 93285 IR004    33
 1 93292 IR004    22

*FERTILIZERS (INORGANIC)
@F FDATE  FMCD  FACD  FDEP  FAMN  FAMP  FAMK  FAMC  FAMO  FOCD FERNAME
 1 93213 FE005 AP004     5   150   -99   -99   -99   -99   -99 -99
 1 93213 FE013 AP004     5     0   300   -99   -99   -99   -99 -99
 1 93213 FE016 AP004     5     0   -99   265   -99   -99   -99 -99
 1 93253 FE005 AP004     5   150   -99   -99   -99   -99   -99 -99

*HARVEST DETAILS
@H HDATE  HSTG  HCOM HSIZE   HPC  HBPC HNAME
 1 93318 GS000   -99   -99   -99   -99 

*SIMULATION CONTROLS
@N GENERAL     NYERS NREPS START SDATE RSEED SNAME.................... SMODEL
 1 GE              1     1     S 93213  2150 DEFAULT SIMULATION CONTR
@N OPTIONS     WATER NITRO SYMBI PHOSP POTAS DISES  CHEM  TILL   CO2
 1 OP              Y     N     Y     N     N     N     N     Y     M
@N METHODS     WTHER INCON LIGHT EVAPO INFIL PHOTO HYDRO NSWIT MESOM MESEV MESOL
 1 ME              M     M     E     R     S     L     R     1     P     S     2
@N MANAGEMENT  PLANT IRRIG FERTI RESID HARVS
 1 MA              R     A     R     R     R
@N OUTPUTS     FNAME OVVEW SUMRY FROPT GROUT CAOUT WAOUT NIOUT MIOUT DIOUT VBOSE CHOUT OPOUT
 1 OU              N     Y     Y     1     Y     Y     N     N     N     N     A     N     N

@  AUTOMATIC MANAGEMENT
@N PLANTING    PFRST PLAST PH2OL PH2OU PH2OD PSTMX PSTMN
 1 PL          82050 82064    40   100    30    40    10
@N IRRIGATION  IMDEP ITHRL ITHRU IROFF IMETH IRAMT IREFF
 1 IR             30    50   100 GS000 IR001    10     1
@N NITROGEN    NMDEP NMTHR NAMNT NCODE NAOFF
 1 NI             30    50    25 FE001 GS000
@N RESIDUES    RIPCN RTIME RIDEP
 1 RE            100     1    20
@N HARVEST     HFRST HLAST HPCNP HPCNR
 1 HA              0 83057   100     0


! Waring: There is a variable [dssat_cul_id] with oversized content [Achirana], only first 6 bits will be applied.
! Waring: There is a variable [dssat_cul_id] with oversized content [Atlantic], only first 6 bits will be applied.
! Waring: There is a variable [dssat_cul_id] with oversized content [397073.16], only first 6 bits will be applied.
! Waring: There is a variable [dssat_cul_id] with oversized content [397077.16], only first 6 bits will be applied.

