*EXP.DETAILS: NYCU8001PT NEW YORK: MODEL VALIDATION, 1980(EWING)

*GENERAL
@PEOPLE
Ewing
@ADDRESS
Cornell University, Cornell, New York, USA
@SITE
Cornell University

*TREATMENTS                        -------------FACTOR LEVELS------------
@N R O C TNAME.................... CU FL SA IC MP MI MF MR MC MT ME MH SM
 1 1 0 0 Potato Model validation    1  1  0  1  1  1  1  0  0  0  0  1  1

*CULTIVARS
@C CR INGENO CNAME
 1 PT IB0004 KATHADIN

*FIELDS
@L ID_FIELD WSTA....  FLSA  FLOB  FLDT  FLDD  FLDS  FLST SLTX  SLDP  ID_SOIL    FLNAME
 1 NYCU0001 NYCU         0     0 IB000     0     0 00000 -99      0  IBPT910006 -99
@L ...........XCRD ...........YCRD .....ELEV .............AREA .SLEN .FLWR .SLAS FLHST FHDUR
 1               0               0         0                 0     0     0     0   -99   -99

*INITIAL CONDITIONS
@C   PCR ICDAT  ICRT  ICND  ICRN  ICRE  ICWD ICRES ICREN ICREP ICRIP ICRID ICNAME
 1    PT 80140  1500     0     1     1   -99  2500  2.67     0   100    15 -99
@C  ICBL  SH2O  SNH4  SNO3
 1    10   .22   3.4   9.8
 1    25   .22   3.2   7.3
 1    40   .22   2.5   5.1
 1    65   .22   2.2   4.7

*PLANTING DETAILS
@P PDATE EDATE  PPOP  PPOE  PLME  PLDS  PLRS  PLRD  PLDP  PLWT  PAGE  PENV  PLPH  SPRL                        PLNAME
 1 80143 80157   5.1   5.1     S     R    86     0    15  1020   -99   -99   -99     8                        -99

*IRRIGATION AND WATER MANAGEMENT
@I  EFIR  IDEP  ITHR  IEPT  IOFF  IAME  IAMT IRNAME
 1     1    30    50   100   -99   -99    10 -99
@I IDATE  IROP IRVAL
 1 80171 IR001    19
 1 80180 IR001    19
 1 80183 IR001    19
 1 80185 IR001    19
 1 80189 IR001    19
 1 80193 IR001    19
 1 80197 IR001    19
 1 80200 IR001    19
 1 80204 IR001    19
 1 80210 IR001    19
 1 80214 IR001    19

*FERTILIZERS (INORGANIC)
@F FDATE  FMCD  FACD  FDEP  FAMN  FAMP  FAMK  FAMC  FAMO  FOCD FERNAME
 1 80143 FE002   -99    10   100     0     0     0     0   -99 -99
 1 80177 FE002   -99     5   175   -99   -99   -99   -99   -99 -99

*HARVEST DETAILS
@H HDATE  HSTG  HCOM HSIZE   HPC  HBPC HNAME
 1 80257 GS000   -99   -99   -99     0 

*SIMULATION CONTROLS
@N GENERAL     NYERS NREPS START SDATE RSEED SNAME.................... SMODEL
 1 GE              1     1     S 80140  2150 New York: model validati
@N OPTIONS     WATER NITRO SYMBI PHOSP POTAS DISES  CHEM  TILL   CO2
 1 OP              Y     Y     Y     N     N     N     N     Y     M
@N METHODS     WTHER INCON LIGHT EVAPO INFIL PHOTO HYDRO NSWIT MESOM MESEV MESOL
 1 ME              M     M     E     R     S     R     R     1     G     S     2
@N MANAGEMENT  PLANT IRRIG FERTI RESID HARVS
 1 MA              R     A     R     R     R
@N OUTPUTS     FNAME OVVEW SUMRY FROPT GROUT CAOUT WAOUT NIOUT MIOUT DIOUT VBOSE CHOUT OPOUT
 1 OU              N     Y     Y     1     Y     N     Y     Y     N     N     Y     N     N

@  AUTOMATIC MANAGEMENT
@N PLANTING    PFRST PLAST PH2OL PH2OU PH2OD PSTMX PSTMN
 1 PL          80136 80150    40   100    30    40    10
@N IRRIGATION  IMDEP ITHRL ITHRU IROFF IMETH IRAMT IREFF
 1 IR             50    80   100 IB001 IBI01    10     1
@N NITROGEN    NMDEP NMTHR NAMNT NCODE NAOFF
 1 NI             30    50    25 IB001 IB001
@N RESIDUES    RIPCN RTIME RIDEP
 1 RE            100     1    20
@N HARVEST     HFRST HLAST HPCNP HPCNR
 1 HA              0 81142   100     0
