*EXP.DETAILS: OSBO8801PT OREGON: HERMISTON COMMERCIAL DATA, 1988

*GENERAL
@PEOPLE
-99
@ADDRESS
Oregon, USA
@SITE
-99
@ PAREA  PRNO  PLEN  PLDR  PLSP  PLAY HAREA  HRNO  HLEN  HARM.........
    -99   -99   -99   -99   -99   -99   -99   -99   -99   -99

*TREATMENTS                        -------------FACTOR LEVELS------------
@N R O C TNAME.................... CU FL SA IC MP MI MF MR MC MT ME MH SM
 1 1 0 0 NASA-PIX Field #1          1  1  0  1  1  1  1  1  0  0  0  1  1
 2 1 0 0 NASA-PIX Field #2          1  1  0  1  2  2  2  1  0  0  0  2  1
 3 1 0 0 NASA-PIX Field #3          1  1  0  1  3  3  3  1  0  0  0  3  1
 4 1 0 0 NASA-PIX Field #4          1  1  0  1  4  4  4  1  0  0  0  4  1
 5 1 0 0 NASA-PIX Field #5          1  1  0  2  5  5  5  1  0  0  0  5  1
 6 1 0 0 NASA-PIX Field #6          1  1  0  1  6  6  6  1  0  0  0  6  1
 7 1 0 0 NASA-PIX Field #7          1  1  0  1  7  7  7  1  0  0  0  6  1
 8 1 0 0 NASA-PIX Field #8          1  1  0  1  8  8  8  1  0  0  0  7  1
 9 1 0 0 NASA-PIX Field #9          1  1  0  1  9  9  9  1  0  0  0  8  1
10 1 0 0 NASA-PIX Field #10         1  1  0  1 10 10 10  1  0  0  0  8  1

*CULTIVARS
@C CR INGENO CNAME
 1 PT IB0003 RUSSET BURBANK


*FIELDS
@L ID_FIELD WSTA....  FLSA  FLOB  FLDT  FLDD  FLDS  FLST SLTX  SLDP  ID_SOIL    FLNAME
 1 OSBO0001 OSBO       -99     0 IB000     0     0 00000 -99      0  IBPT910005 -99
@L ...........XCRD ...........YCRD .....ELEV .............AREA .SLEN .FLWR .SLAS FLHST FHDUR
 1             -99             -99       -99               -99   -99   -99   -99   -99   -99

*INITIAL CONDITIONS
@C   PCR ICDAT  ICRT  ICND  ICRN  ICRE  ICWD ICRES ICREN ICREP ICRIP ICRID ICNAME
 1    PT 88001  1000   -99     1     1   -99   -99   -99   -99   -99   -99 -99
@C  ICBL  SH2O  SNH4  SNO3
 1    10   .29     5     4
 1    25   .29     4     3
 1    40   .29     2     2
 1    65   .29     1     1
@C   PCR ICDAT  ICRT  ICND  ICRN  ICRE  ICWD ICRES ICREN ICREP ICRIP ICRID ICNAME
 2    PT 88001  1000   -99     1     1   -99   -99   -99   -99   -99   -99 -99
@C  ICBL  SH2O  SNH4  SNO3
 2    10   .29    10     4
 2    25   .29    10     3
 2    40   .29     0     2
 2    65   .29     0     1

*PLANTING DETAILS
@P PDATE EDATE  PPOP  PPOE  PLME  PLDS  PLRS  PLRD  PLDP  PLWT  PAGE  PENV  PLPH  SPRL                        PLNAME
 1 88106 88129   4.8   4.8     S     R    71     0    10   960   -99   -99   -99    10                        -99
 2 88089 88115   4.8   4.8     S     R    71     0    10   960   -99   -99   -99    10                        -99
 3 88098 88118   4.8   4.8     S     R    71     0    10   960   -99   -99   -99    10                        -99
 4 88117 88134   4.8   4.8     S     R    71     0    10   960   -99   -99   -99    10                        -99
 5 88075 88105   4.8   4.8     S     R    71     0    10   960   -99   -99   -99    10                        -99
 6 88081 88114   4.1   4.1     S     R    71     0    10   820   -99   -99   -99    10                        -99
 7 88107 88131   4.5   4.5     S     R    71     0    10   900   -99   -99   -99    10                        -99
 8 88091 88120   4.7   4.7     S     R    71     0    10   940   -99   -99   -99    10                        -99
 9 88116 88136   4.5   4.5     S     R    71     0    10   900   -99   -99   -99    10                        -99
10 88098 88125   4.5   4.5     S     R    71     0    10   900   -99   -99   -99    10                        -99

*IRRIGATION AND WATER MANAGEMENT
@I  EFIR  IDEP  ITHR  IEPT  IOFF  IAME  IAMT IRNAME
 1     1   -99   -99   -99   -99   -99    10 -99
@I IDATE  IROP IRVAL
 1 88109 IR001    15
 1 88116 IR001    15
 1 88123 IR001     8
 1 88127 IR001     8
 1 88130 IR001     8
 1 88133 IR001     8
 1 88137 IR001     8
 1 88140 IR001     8
 1 88144 IR001     8
 1 88148 IR001     8
 1 88151 IR001    10
 1 88155 IR001     9
 1 88158 IR001     8
 1 88159 IR001     7
 1 88160 IR001     8
 1 88161 IR001     7
 1 88162 IR001     7
 1 88163 IR001     7
 1 88164 IR001     8
 1 88165 IR001     8
 1 88166 IR001     7
 1 88167 IR001     8
 1 88168 IR001     7
 1 88169 IR001     7
 1 88170 IR001     7
 1 88171 IR001     8
 1 88172 IR001     8
 1 88173 IR001     7
 1 88174 IR001     8
 1 88175 IR001     7
 1 88176 IR001     7
 1 88177 IR001     7
 1 88178 IR001     8
 1 88179 IR001     8
 1 88180 IR001     7
 1 88181 IR001     8
 1 88182 IR001     7
 1 88183 IR001     7
 1 88184 IR001     7
 1 88185 IR001     8
 1 88186 IR001     9
 1 88187 IR001     9
 1 88188 IR001     9
 1 88189 IR001     9
 1 88190 IR001     8
 1 88191 IR001     8
 1 88192 IR001     8
 1 88193 IR001     9
 1 88194 IR001     9
 1 88195 IR001     9
 1 88196 IR001     9
 1 88197 IR001     9
 1 88198 IR001     8
 1 88199 IR001     8
 1 88200 IR001     9
 1 88201 IR001     9
 1 88202 IR001     9
 1 88203 IR001     9
 1 88204 IR001     9
 1 88205 IR001     8
 1 88206 IR001     8
 1 88207 IR001     9
 1 88208 IR001     9
 1 88209 IR001     9
 1 88210 IR001     9
 1 88211 IR001     9
 1 88212 IR001     8
 1 88213 IR001     8
 1 88214 IR001     9
 1 88215 IR001     7
 1 88216 IR001     8
 1 88217 IR001     8
 1 88218 IR001     7
 1 88219 IR001     8
 1 88220 IR001     8
 1 88221 IR001     9
 1 88222 IR001     7
 1 88223 IR001     8
 1 88224 IR001     8
 1 88225 IR001     7
 1 88226 IR001     8
 1 88227 IR001     8
 1 88228 IR001     9
 1 88229 IR001     7
 1 88230 IR001     8
 1 88231 IR001     8
 1 88232 IR001     7
 1 88233 IR001     8
 1 88234 IR001     8
 1 88235 IR001     9
 1 88236 IR001     7
 1 88237 IR001     8
 1 88238 IR001     8
 1 88239 IR001     7
 1 88240 IR001     8
 1 88241 IR001     8
 1 88242 IR001     9
 1 88243 IR001     7
 1 88244 IR001     8
 1 88245 IR001     8
 1 88246 IR001     7
 1 88247 IR001     8
 1 88248 IR001     8
 1 88249 IR001     7
 1 88253 IR001     6
 1 88256 IR001     7
 1 88259 IR001     6
 1 88263 IR001    13
 1 88270 IR001    13
@I  EFIR  IDEP  ITHR  IEPT  IOFF  IAME  IAMT IRNAME
 2     1   -99   -99   -99   -99   -99    10 -99
@I IDATE  IROP IRVAL
 2 88109 IR001    13
 2 88116 IR001    13
 2 88123 IR001    13
 2 88127 IR001    12
 2 88130 IR001    13
 2 88133 IR001    12
 2 88137 IR001    13
 2 88140 IR001    12
 2 88144 IR001    13
 2 88147 IR001    12
 2 88151 IR001    10
 2 88153 IR001     9
 2 88155 IR001     9
 2 88158 IR001     6
 2 88159 IR001     6
 2 88160 IR001     6
 2 88161 IR001     6
 2 88162 IR001     6
 2 88163 IR001     6
 2 88164 IR001     6
 2 88165 IR001     6
 2 88166 IR001     6
 2 88167 IR001     6
 2 88168 IR001     6
 2 88169 IR001     6
 2 88170 IR001     6
 2 88171 IR001     6
 2 88172 IR001     6
 2 88173 IR001     6
 2 88174 IR001     6
 2 88175 IR001     6
 2 88176 IR001     6
 2 88177 IR001     6
 2 88178 IR001     6
 2 88179 IR001     6
 2 88180 IR001     6
 2 88181 IR001     6
 2 88182 IR001     6
 2 88183 IR001     6
 2 88184 IR001     6
 2 88185 IR001     6
 2 88186 IR001     8
 2 88187 IR001     7
 2 88188 IR001     8
 2 88189 IR001     7
 2 88190 IR001     8
 2 88191 IR001     7
 2 88192 IR001     8
 2 88193 IR001     8
 2 88194 IR001     7
 2 88195 IR001     8
 2 88196 IR001     7
 2 88197 IR001     8
 2 88198 IR001     7
 2 88199 IR001     8
 2 88200 IR001     8
 2 88201 IR001     7
 2 88202 IR001     8
 2 88203 IR001     7
 2 88204 IR001     8
 2 88205 IR001     7
 2 88206 IR001     8
 2 88207 IR001     8
 2 88208 IR001     7
 2 88209 IR001     8
 2 88210 IR001     7
 2 88211 IR001     8
 2 88212 IR001     7
 2 88213 IR001     8
 2 88214 IR001    12
 2 88217 IR001    12
 2 88221 IR001    12
 2 88224 IR001    12
 2 88228 IR001    12
 2 88232 IR001    12
 2 88235 IR001    12
 2 88239 IR001    12
 2 88242 IR001    12
 2 88245 IR001    12
 2 88249 IR001     8
 2 88252 IR001     7
 2 88256 IR001     8
 2 88259 IR001     7
 2 88263 IR001     8
 2 88267 IR001     7
 2 88270 IR001     8
 2 88273 IR001     7
@I  EFIR  IDEP  ITHR  IEPT  IOFF  IAME  IAMT IRNAME
 3     1   -99   -99   -99   -99   -99    10 -99
@I IDATE  IROP IRVAL
 3 88109 IR001    12
 3 88116 IR001    12
 3 88123 IR001     9
 3 88127 IR001     9
 3 88130 IR001     9
 3 88133 IR001     9
 3 88137 IR001     9
 3 88140 IR001     9
 3 88144 IR001    10
 3 88147 IR001     9
 3 88151 IR001    10
 3 88154 IR001     9
 3 88158 IR001     7
 3 88159 IR001     6
 3 88160 IR001     6
 3 88161 IR001     6
 3 88162 IR001     6
 3 88163 IR001     6
 3 88164 IR001     6
 3 88165 IR001     7
 3 88166 IR001     6
 3 88167 IR001     6
 3 88168 IR001     6
 3 88169 IR001     6
 3 88170 IR001     6
 3 88171 IR001     6
 3 88172 IR001     7
 3 88173 IR001     6
 3 88174 IR001     6
 3 88175 IR001     6
 3 88176 IR001     6
 3 88177 IR001     6
 3 88178 IR001     6
 3 88179 IR001     7
 3 88180 IR001     6
 3 88181 IR001     6
 3 88182 IR001     6
 3 88183 IR001     6
 3 88184 IR001     6
 3 88185 IR001     7
 3 88186 IR001     7
 3 88187 IR001     7
 3 88188 IR001     7
 3 88189 IR001     7
 3 88190 IR001     7
 3 88191 IR001     7
 3 88192 IR001     7
 3 88193 IR001     7
 3 88194 IR001     7
 3 88195 IR001     7
 3 88196 IR001     7
 3 88197 IR001     7
 3 88198 IR001     7
 3 88199 IR001     7
 3 88200 IR001     7
 3 88201 IR001     7
 3 88202 IR001     7
 3 88203 IR001     7
 3 88204 IR001     7
 3 88205 IR001     7
 3 88206 IR001     7
 3 88207 IR001     7
 3 88208 IR001     7
 3 88209 IR001     7
 3 88210 IR001     7
 3 88211 IR001     7
 3 88212 IR001     7
 3 88213 IR001     7
 3 88214 IR001     7
 3 88215 IR001     6
 3 88216 IR001     7
 3 88217 IR001     6
 3 88218 IR001     7
 3 88219 IR001     6
 3 88220 IR001     7
 3 88221 IR001     7
 3 88222 IR001     6
 3 88223 IR001     7
 3 88224 IR001     6
 3 88225 IR001     7
 3 88226 IR001     6
 3 88227 IR001     7
 3 88228 IR001     7
 3 88229 IR001     6
 3 88230 IR001     7
 3 88231 IR001     6
 3 88232 IR001     7
 3 88233 IR001     6
 3 88234 IR001     7
 3 88235 IR001     7
 3 88236 IR001     6
 3 88237 IR001     7
 3 88238 IR001     6
 3 88239 IR001     7
 3 88240 IR001     6
 3 88241 IR001     7
 3 88242 IR001     7
 3 88243 IR001     6
 3 88244 IR001     7
 3 88245 IR001     6
 3 88246 IR001     7
 3 88247 IR001     6
 3 88248 IR001     7
 3 88249 IR001     8
 3 88252 IR001     7
 3 88256 IR001     8
 3 88259 IR001     7
@I  EFIR  IDEP  ITHR  IEPT  IOFF  IAME  IAMT IRNAME
 4     1   -99   -99   -99   -99   -99    10 -99
@I IDATE  IROP IRVAL
 4 88221 IR001     8
 4 88222 IR001     7
 4 88223 IR001     7
 4 88224 IR001     7
 4 88225 IR001     8
 4 88226 IR001     7
 4 88227 IR001     7
 4 88228 IR001     8
 4 88229 IR001     7
 4 88230 IR001     8
 4 88231 IR001     7
 4 88232 IR001     8
 4 88233 IR001     7
 4 88234 IR001     7
 4 88235 IR001     8
 4 88236 IR001     7
 4 88237 IR001     8
 4 88238 IR001     7
 4 88239 IR001     8
 4 88240 IR001     7
 4 88241 IR001     7
 4 88242 IR001     9
 4 88243 IR001     7
 4 88244 IR001     7
 4 88245 IR001     8
 4 88246 IR001     8
 4 88247 IR001     7
 4 88248 IR001     7
 4 88249 IR001     7
 4 88252 IR001     6
 4 88256 IR001     7
 4 88259 IR001     6
 4 88263 IR001     7
 4 88267 IR001     6
 4 88270 IR001     7
 4 88273 IR001     6
 4 88277 IR001     5
 4 88116 IR001    15
 4 88123 IR001    10
 4 88130 IR001     5
 4 88134 IR001     5
 4 88137 IR001     5
 4 88140 IR001     5
 4 88144 IR001     5
 4 88147 IR001     5
 4 88151 IR001     5
 4 88154 IR001     5
 4 88158 IR001     6
 4 88159 IR001     7
 4 88160 IR001     7
 4 88161 IR001     7
 4 88162 IR001     7
 4 88163 IR001     7
 4 88164 IR001     7
 4 88165 IR001     6
 4 88166 IR001     7
 4 88167 IR001     7
 4 88168 IR001     7
 4 88169 IR001     7
 4 88170 IR001     7
 4 88171 IR001     7
 4 88172 IR001     7
 4 88173 IR001     7
 4 88174 IR001     7
 4 88175 IR001     7
 4 88176 IR001     7
 4 88177 IR001     7
 4 88178 IR001     7
 4 88179 IR001     7
 4 88180 IR001     7
 4 88181 IR001     7
 4 88182 IR001     7
 4 88183 IR001     7
 4 88184 IR001     7
 4 88185 IR001     7
 4 88186 IR001     8
 4 88187 IR001     9
 4 88188 IR001     8
 4 88189 IR001     9
 4 88190 IR001     8
 4 88191 IR001     9
 4 88192 IR001     8
 4 88193 IR001     8
 4 88194 IR001     9
 4 88195 IR001     8
 4 88196 IR001     9
 4 88197 IR001     8
 4 88198 IR001     9
 4 88199 IR001     8
 4 88200 IR001     9
 4 88201 IR001     9
 4 88202 IR001     8
 4 88203 IR001     9
 4 88204 IR001     8
 4 88205 IR001     9
 4 88206 IR001     8
 4 88207 IR001    10
 4 88208 IR001     9
 4 88209 IR001     8
 4 88210 IR001     9
 4 88211 IR001     8
 4 88212 IR001     9
 4 88213 IR001     8
 4 88214 IR001     8
 4 88215 IR001     7
 4 88216 IR001     7
 4 88217 IR001     7
 4 88218 IR001     8
 4 88219 IR001     7
 4 88220 IR001     7
@I  EFIR  IDEP  ITHR  IEPT  IOFF  IAME  IAMT IRNAME
 5     1   -99   -99   -99   -99   -99    10 -99
@I IDATE  IROP IRVAL
 5 88114 IR001    12
 5 88116 IR001    12
 5 88118 IR001    12
 5 88119 IR001    12
 5 88121 IR001    12
 5 88129 IR001     9
 5 88133 IR001     9
 5 88136 IR001    10
 5 88138 IR001    10
 5 88140 IR001    10
 5 88143 IR001     8
 5 88144 IR001     7
 5 88145 IR001     7
 5 88146 IR001     7
 5 88147 IR001     7
 5 88148 IR001     7
 5 88149 IR001     7
 5 88150 IR001     9
 5 88151 IR001     9
 5 88152 IR001     8
 5 88153 IR001     9
 5 88154 IR001     8
 5 88155 IR001     9
 5 88156 IR001     8
 5 88157 IR001     7
 5 88158 IR001     5
 5 88159 IR001     5
 5 88160 IR001     5
 5 88161 IR001     5
 5 88162 IR001     5
 5 88163 IR001     5
 5 88164 IR001     8
 5 88166 IR001     8
 5 88168 IR001     8
 5 88171 IR001     7
 5 88172 IR001     7
 5 88173 IR001     6
 5 88174 IR001     7
 5 88175 IR001     6
 5 88176 IR001     7
 5 88177 IR001     7
 5 88178 IR001    11
 5 88179 IR001    10
 5 88180 IR001     9
 5 88181 IR001    10
 5 88182 IR001    10
 5 88183 IR001     9
 5 88184 IR001    10
 5 88185 IR001     8
 5 88186 IR001     7
 5 88187 IR001     7
 5 88188 IR001     7
 5 88189 IR001     7
 5 88190 IR001     7
 5 88191 IR001     7
 5 88192 IR001     8
 5 88193 IR001     9
 5 88194 IR001     9
 5 88195 IR001     9
 5 88196 IR001     9
 5 88197 IR001     9
 5 88198 IR001     9
 5 88199 IR001    11
 5 88200 IR001    10
 5 88201 IR001     9
 5 88202 IR001    10
 5 88203 IR001    10
 5 88204 IR001     9
 5 88205 IR001    10
 5 88206 IR001     7
 5 88207 IR001     6
 5 88208 IR001     6
 5 88209 IR001     6
 5 88210 IR001     6
 5 88211 IR001     6
 5 88212 IR001     6
 5 88213 IR001     8
 5 88214 IR001     8
 5 88215 IR001     9
 5 88216 IR001     8
 5 88217 IR001     8
 5 88218 IR001     9
 5 88219 IR001     8
 5 88220 IR001     6
 5 88221 IR001     7
 5 88222 IR001     7
 5 88223 IR001     7
 5 88224 IR001     7
 5 88225 IR001     7
 5 88226 IR001     7
 5 88229 IR001    13
 5 88230 IR001    12
 5 88232 IR001    12
 5 88234 IR001     9
@I  EFIR  IDEP  ITHR  IEPT  IOFF  IAME  IAMT IRNAME
 6     1   -99   -99   -99   -99   -99    10 -99
@I IDATE  IROP IRVAL
 6 88109 IR001    13
 6 88116 IR001    13
 6 88123 IR001    13
 6 88127 IR001    12
 6 88130 IR001    13
 6 88133 IR001    12
 6 88137 IR001    13
 6 88140 IR001    12
 6 88144 IR001    13
 6 88147 IR001    12
 6 88151 IR001    15
 6 88154 IR001    13
 6 88158 IR001     6
 6 88159 IR001     6
 6 88160 IR001     6
 6 88161 IR001     6
 6 88162 IR001     6
 6 88163 IR001     6
 6 88164 IR001     6
 6 88165 IR001     6
 6 88166 IR001     6
 6 88167 IR001     6
 6 88168 IR001     6
 6 88169 IR001     6
 6 88170 IR001     6
 6 88171 IR001     6
 6 88172 IR001     6
 6 88173 IR001     6
 6 88174 IR001     6
 6 88175 IR001     6
 6 88176 IR001     6
 6 88177 IR001     6
 6 88178 IR001     6
 6 88179 IR001     6
 6 88180 IR001     6
 6 88181 IR001     6
 6 88182 IR001     6
 6 88183 IR001     6
 6 88184 IR001     6
 6 88185 IR001     6
 6 88186 IR001     8
 6 88187 IR001     7
 6 88188 IR001     8
 6 88189 IR001     7
 6 88190 IR001     8
 6 88191 IR001     7
 6 88192 IR001     8
 6 88193 IR001     8
 6 88194 IR001     7
 6 88195 IR001     8
 6 88196 IR001     7
 6 88197 IR001     8
 6 88198 IR001     7
 6 88199 IR001     8
 6 88200 IR001     8
 6 88201 IR001     7
 6 88202 IR001     8
 6 88203 IR001     7
 6 88204 IR001     8
 6 88205 IR001     7
 6 88206 IR001     8
 6 88207 IR001     8
 6 88208 IR001     7
 6 88209 IR001     8
 6 88210 IR001     7
 6 88211 IR001     8
 6 88212 IR001     7
 6 88213 IR001     8
 6 88214 IR001     6
 6 88215 IR001     6
 6 88217 IR001     6
 6 88219 IR001     6
 6 88221 IR001     6
 6 88222 IR001     6
 6 88224 IR001     6
 6 88226 IR001     6
 6 88228 IR001     8
 6 88230 IR001     8
 6 88232 IR001     8
 6 88235 IR001     8
 6 88237 IR001     8
 6 88239 IR001     8
 6 88242 IR001     8
 6 88244 IR001     8
 6 88246 IR001     8
 6 88249 IR001     8
 6 88252 IR001     7
 6 88256 IR001     8
 6 88259 IR001     7
 6 88263 IR001     8
 6 88267 IR001     7
 6 88270 IR001     8
 6 88273 IR001     7
@I  EFIR  IDEP  ITHR  IEPT  IOFF  IAME  IAMT IRNAME
 7     1   -99   -99   -99   -99   -99    10 -99
@I IDATE  IROP IRVAL
 7 88109 IR001    13
 7 88116 IR001    13
 7 88123 IR001    13
 7 88127 IR001    12
 7 88130 IR001    13
 7 88133 IR001    12
 7 88137 IR001    13
 7 88140 IR001    12
 7 88144 IR001    13
 7 88147 IR001    12
 7 88151 IR001    15
 7 88154 IR001    13
 7 88158 IR001     6
 7 88159 IR001     6
 7 88160 IR001     6
 7 88161 IR001     6
 7 88162 IR001     6
 7 88163 IR001     6
 7 88164 IR001     6
 7 88165 IR001     6
 7 88166 IR001     6
 7 88167 IR001     6
 7 88168 IR001     6
 7 88169 IR001     6
 7 88170 IR001     6
 7 88171 IR001     6
 7 88172 IR001     6
 7 88173 IR001     6
 7 88174 IR001     6
 7 88175 IR001     6
 7 88176 IR001     6
 7 88177 IR001     6
 7 88178 IR001     6
 7 88179 IR001     6
 7 88180 IR001     6
 7 88181 IR001     6
 7 88182 IR001     6
 7 88183 IR001     6
 7 88184 IR001     6
 7 88185 IR001     6
 7 88186 IR001     8
 7 88187 IR001     7
 7 88188 IR001     8
 7 88189 IR001     7
 7 88190 IR001     8
 7 88191 IR001     7
 7 88192 IR001     8
 7 88193 IR001     8
 7 88194 IR001     7
 7 88195 IR001     8
 7 88196 IR001     7
 7 88197 IR001     8
 7 88198 IR001     7
 7 88199 IR001     8
 7 88200 IR001     8
 7 88201 IR001     7
 7 88202 IR001     8
 7 88203 IR001     7
 7 88204 IR001     8
 7 88205 IR001     7
 7 88206 IR001     8
 7 88207 IR001     8
 7 88208 IR001     7
 7 88209 IR001     8
 7 88210 IR001     7
 7 88211 IR001     8
 7 88212 IR001     7
 7 88213 IR001     8
 7 88214 IR001     6
 7 88215 IR001     6
 7 88217 IR001     6
 7 88219 IR001     6
 7 88221 IR001     6
 7 88222 IR001     6
 7 88224 IR001     6
 7 88226 IR001     6
 7 88228 IR001     8
 7 88230 IR001     8
 7 88232 IR001     8
 7 88235 IR001     8
 7 88237 IR001     8
 7 88239 IR001     8
 7 88242 IR001     8
 7 88244 IR001     8
 7 88246 IR001     8
 7 88249 IR001     8
 7 88252 IR001     7
 7 88256 IR001     8
 7 88259 IR001     7
 7 88263 IR001     8
 7 88267 IR001     7
 7 88270 IR001     8
 7 88273 IR001     7
@I  EFIR  IDEP  ITHR  IEPT  IOFF  IAME  IAMT IRNAME
 8     1   -99   -99   -99   -99   -99    10 -99
@I IDATE  IROP IRVAL
 8 88109 IR001    13
 8 88116 IR001    13
 8 88123 IR001    13
 8 88127 IR001    12
 8 88130 IR001    13
 8 88133 IR001    12
 8 88137 IR001    13
 8 88140 IR001    12
 8 88144 IR001    13
 8 88147 IR001    12
 8 88151 IR001    15
 8 88154 IR001    13
 8 88158 IR001     6
 8 88159 IR001     6
 8 88160 IR001     6
 8 88161 IR001     6
 8 88162 IR001     6
 8 88163 IR001     6
 8 88164 IR001     6
 8 88165 IR001     6
 8 88166 IR001     6
 8 88167 IR001     6
 8 88168 IR001     6
 8 88169 IR001     6
 8 88170 IR001     6
 8 88171 IR001     6
 8 88172 IR001     6
 8 88173 IR001     6
 8 88174 IR001     6
 8 88175 IR001     6
 8 88176 IR001     6
 8 88177 IR001     6
 8 88178 IR001     6
 8 88179 IR001     6
 8 88180 IR001     6
 8 88181 IR001     6
 8 88182 IR001     6
 8 88183 IR001     6
 8 88184 IR001     6
 8 88185 IR001     6
 8 88186 IR001     8
 8 88187 IR001     7
 8 88188 IR001     8
 8 88189 IR001     7
 8 88190 IR001     8
 8 88191 IR001     7
 8 88192 IR001     8
 8 88193 IR001     8
 8 88194 IR001     7
 8 88195 IR001     8
 8 88196 IR001     7
 8 88197 IR001     8
 8 88198 IR001     7
 8 88199 IR001     8
 8 88200 IR001     8
 8 88201 IR001     7
 8 88202 IR001     8
 8 88203 IR001     7
 8 88204 IR001     8
 8 88205 IR001     7
 8 88206 IR001     8
 8 88207 IR001     8
 8 88208 IR001     7
 8 88209 IR001     8
 8 88210 IR001     7
 8 88211 IR001     8
 8 88212 IR001     7
 8 88213 IR001     8
 8 88214 IR001     6
 8 88215 IR001     6
 8 88217 IR001     6
 8 88219 IR001     6
 8 88221 IR001     6
 8 88222 IR001     6
 8 88224 IR001     6
 8 88226 IR001     6
 8 88228 IR001     8
 8 88230 IR001     8
 8 88232 IR001     8
 8 88235 IR001     8
 8 88237 IR001     8
 8 88239 IR001     8
 8 88242 IR001     8
 8 88244 IR001     8
 8 88246 IR001     8
 8 88249 IR001     8
 8 88252 IR001     7
 8 88256 IR001     8
 8 88259 IR001     7
 8 88263 IR001     8
 8 88267 IR001     7
 8 88270 IR001     8
 8 88273 IR001     7
@I  EFIR  IDEP  ITHR  IEPT  IOFF  IAME  IAMT IRNAME
 9     1   -99   -99   -99   -99   -99    10 -99
@I IDATE  IROP IRVAL
 9 88109 IR001    13
 9 88116 IR001    13
 9 88123 IR001    13
 9 88127 IR001    12
 9 88130 IR001    13
 9 88133 IR001    12
 9 88137 IR001    13
 9 88140 IR001    12
 9 88144 IR001    13
 9 88147 IR001    12
 9 88151 IR001    15
 9 88154 IR001    13
 9 88158 IR001     6
 9 88159 IR001     6
 9 88160 IR001     6
 9 88161 IR001     6
 9 88162 IR001     6
 9 88163 IR001     6
 9 88164 IR001     6
 9 88165 IR001     6
 9 88166 IR001     6
 9 88167 IR001     6
 9 88168 IR001     6
 9 88169 IR001     6
 9 88170 IR001     6
 9 88171 IR001     6
 9 88172 IR001     6
 9 88173 IR001     6
 9 88174 IR001     6
 9 88175 IR001     6
 9 88176 IR001     6
 9 88177 IR001     6
 9 88178 IR001     6
 9 88179 IR001     6
 9 88180 IR001     6
 9 88181 IR001     6
 9 88182 IR001     6
 9 88183 IR001     6
 9 88184 IR001     6
 9 88185 IR001     6
 9 88186 IR001     8
 9 88187 IR001     7
 9 88188 IR001     8
 9 88189 IR001     7
 9 88190 IR001     8
 9 88191 IR001     7
 9 88192 IR001     8
 9 88193 IR001     8
 9 88194 IR001     7
 9 88195 IR001     8
 9 88196 IR001     7
 9 88197 IR001     8
 9 88198 IR001     7
 9 88199 IR001     8
 9 88200 IR001     8
 9 88201 IR001     7
 9 88202 IR001     8
 9 88203 IR001     7
 9 88204 IR001     8
 9 88205 IR001     7
 9 88206 IR001     8
 9 88207 IR001     8
 9 88208 IR001     7
 9 88209 IR001     8
 9 88210 IR001     7
 9 88211 IR001     8
 9 88212 IR001     7
 9 88213 IR001     8
 9 88214 IR001     6
 9 88215 IR001     6
 9 88217 IR001     6
 9 88219 IR001     6
 9 88221 IR001     6
 9 88222 IR001     6
 9 88224 IR001     6
 9 88226 IR001     6
 9 88228 IR001     8
 9 88230 IR001     8
 9 88232 IR001     8
 9 88235 IR001     8
 9 88237 IR001     8
 9 88239 IR001     8
 9 88242 IR001     8
 9 88244 IR001     8
 9 88246 IR001     8
 9 88249 IR001     8
 9 88252 IR001     7
 9 88256 IR001     8
 9 88259 IR001     7
 9 88263 IR001     8
 9 88267 IR001     7
 9 88270 IR001     8
 9 88273 IR001     7
@I  EFIR  IDEP  ITHR  IEPT  IOFF  IAME  IAMT IRNAME
10     1   -99   -99   -99   -99   -99    10 -99
@I IDATE  IROP IRVAL
10 88109 IR001    13
10 88116 IR001    13
10 88123 IR001    13
10 88127 IR001    12
10 88130 IR001    13
10 88133 IR001    12
10 88137 IR001    13
10 88140 IR001    12
10 88144 IR001    13
10 88147 IR001    12
10 88151 IR001    15
10 88154 IR001    13
10 88158 IR001     6
10 88159 IR001     6
10 88160 IR001     6
10 88161 IR001     6
10 88162 IR001     6
10 88163 IR001     6
10 88164 IR001     6
10 88165 IR001     6
10 88166 IR001     6
10 88167 IR001     6
10 88168 IR001     6
10 88169 IR001     6
10 88170 IR001     6
10 88171 IR001     6
10 88172 IR001     6
10 88173 IR001     6
10 88174 IR001     6
10 88175 IR001     6
10 88176 IR001     6
10 88177 IR001     6
10 88178 IR001     6
10 88179 IR001     6
10 88180 IR001     6
10 88181 IR001     6
10 88182 IR001     6
10 88183 IR001     6
10 88184 IR001     6
10 88185 IR001     6
10 88186 IR001     8
10 88187 IR001     7
10 88188 IR001     8
10 88189 IR001     7
10 88190 IR001     8
10 88191 IR001     7
10 88192 IR001     8
10 88193 IR001     8
10 88194 IR001     7
10 88195 IR001     8
10 88196 IR001     7
10 88197 IR001     8
10 88198 IR001     7
10 88199 IR001     8
10 88200 IR001     8
10 88201 IR001     7
10 88202 IR001     8
10 88203 IR001     7
10 88204 IR001     8
10 88205 IR001     7
10 88206 IR001     8
10 88207 IR001     8
10 88208 IR001     7
10 88209 IR001     8
10 88210 IR001     7
10 88211 IR001     8
10 88212 IR001     7
10 88213 IR001     8
10 88214 IR001     6
10 88215 IR001     6
10 88217 IR001     6
10 88219 IR001     6
10 88221 IR001     6
10 88222 IR001     6
10 88224 IR001     6
10 88226 IR001     6
10 88228 IR001     8
10 88230 IR001     8
10 88232 IR001     8
10 88235 IR001     8
10 88237 IR001     8
10 88239 IR001     8
10 88242 IR001     8
10 88244 IR001     8
10 88246 IR001     8
10 88249 IR001     8
10 88252 IR001     7
10 88256 IR001     8
10 88259 IR001     7
10 88263 IR001     8
10 88267 IR001     7
10 88270 IR001     8
10 88273 IR001     7

*FERTILIZERS (INORGANIC)
@F FDATE  FMCD  FACD  FDEP  FAMN  FAMP  FAMK  FAMC  FAMO  FOCD FERNAME
 1 88050 FE003   -99    15    10   -99   -99   -99   -99   -99 -99
 1 88106 FE003   -99    15    67   -99   -99   -99   -99   -99 -99
 1 88116 FE003   -99     1    20   -99   -99   -99   -99   -99 -99
 1 88123 FE003   -99     1    20   -99   -99   -99   -99   -99 -99
 1 88130 FE003   -99     1    20   -99   -99   -99   -99   -99 -99
 1 88137 FE003   -99     1    20   -99   -99   -99   -99   -99 -99
 1 88144 FE003   -99     1    30   -99   -99   -99   -99   -99 -99
 1 88151 FE003   -99     1    20   -99   -99   -99   -99   -99 -99
 1 88158 FE003   -99     1    20   -99   -99   -99   -99   -99 -99
 1 88165 FE003   -99     1    20   -99   -99   -99   -99   -99 -99
 1 88172 FE003   -99     1    20   -99   -99   -99   -99   -99 -99
 1 88179 FE003   -99     1    20   -99   -99   -99   -99   -99 -99
 1 88186 FE003   -99     1    20   -99   -99   -99   -99   -99 -99
 1 88193 FE003   -99     1    20   -99   -99   -99   -99   -99 -99
 1 88200 FE003   -99     1    20   -99   -99   -99   -99   -99 -99
 1 88207 FE003   -99     1    20   -99   -99   -99   -99   -99 -99
 2 88089 FE003   -99    15    60   -99   -99   -99   -99   -99 -99
 2 88116 FE003   -99     1    21   -99   -99   -99   -99   -99 -99
 2 88123 FE003   -99     1    21   -99   -99   -99   -99   -99 -99
 2 88130 FE003   -99     1    21   -99   -99   -99   -99   -99 -99
 2 88137 FE003   -99     1    21   -99   -99   -99   -99   -99 -99
 2 88144 FE003   -99     1    21   -99   -99   -99   -99   -99 -99
 2 88151 FE003   -99     1    21   -99   -99   -99   -99   -99 -99
 2 88158 FE003   -99     1    21   -99   -99   -99   -99   -99 -99
 2 88165 FE003   -99     1    21   -99   -99   -99   -99   -99 -99
 2 88172 FE003   -99     1    21   -99   -99   -99   -99   -99 -99
 2 88179 FE003   -99     1    21   -99   -99   -99   -99   -99 -99
 2 88186 FE003   -99     1    21   -99   -99   -99   -99   -99 -99
 2 88193 FE003   -99     1    21   -99   -99   -99   -99   -99 -99
 2 88200 FE003   -99     1    21   -99   -99   -99   -99   -99 -99
 2 88207 FE003   -99     1    21   -99   -99   -99   -99   -99 -99
 3 88047 FE001   -99    15    15   -99   -99   -99   -99   -99 -99
 3 88098 FE001   -99    15    66   -99   -99   -99   -99   -99 -99
 3 88116 FE003   -99     1    26   -99   -99   -99   -99   -99 -99
 3 88123 FE003   -99     1    26   -99   -99   -99   -99   -99 -99
 3 88130 FE003   -99     1    25   -99   -99   -99   -99   -99 -99
 3 88137 FE003   -99     1    25   -99   -99   -99   -99   -99 -99
 3 88144 FE003   -99     1    25   -99   -99   -99   -99   -99 -99
 3 88151 FE003   -99     1    25   -99   -99   -99   -99   -99 -99
 3 88158 FE003   -99     1    25   -99   -99   -99   -99   -99 -99
 3 88165 FE003   -99     1    25   -99   -99   -99   -99   -99 -99
 3 88172 FE003   -99     1    25   -99   -99   -99   -99   -99 -99
 3 88179 FE003   -99     1    25   -99   -99   -99   -99   -99 -99
 3 88186 FE003   -99     1    25   -99   -99   -99   -99   -99 -99
 3 88193 FE003   -99     1    25   -99   -99   -99   -99   -99 -99
 3 88200 FE003   -99     1    25   -99   -99   -99   -99   -99 -99
 3 88207 FE003   -99     1    25   -99   -99   -99   -99   -99 -99
 4 88116 FE001   -99    15    69   -99   -99   -99   -99   -99 -99
 4 88117 FE003   -99     1    20   -99   -99   -99   -99   -99 -99
 4 88123 FE003   -99     1    20   -99   -99   -99   -99   -99 -99
 4 88130 FE003   -99     1    20   -99   -99   -99   -99   -99 -99
 4 88137 FE003   -99     1    20   -99   -99   -99   -99   -99 -99
 4 88144 FE003   -99     1    20   -99   -99   -99   -99   -99 -99
 4 88151 FE003   -99     1    20   -99   -99   -99   -99   -99 -99
 4 88158 FE003   -99     1    20   -99   -99   -99   -99   -99 -99
 4 88165 FE003   -99     1    20   -99   -99   -99   -99   -99 -99
 4 88172 FE003   -99     1    20   -99   -99   -99   -99   -99 -99
 4 88179 FE003   -99     1    20   -99   -99   -99   -99   -99 -99
 4 88186 FE003   -99     1    20   -99   -99   -99   -99   -99 -99
 4 88193 FE003   -99     1    20   -99   -99   -99   -99   -99 -99
 4 88200 FE003   -99     1    20   -99   -99   -99   -99   -99 -99
 4 88207 FE003   -99     1    20   -99   -99   -99   -99   -99 -99
 5 88114 FE001   -99    15    48   -99   -99   -99   -99   -99 -99
 5 88121 FE003   -99     1    11   -99   -99   -99   -99   -99 -99
 5 88129 FE003   -99     1    18   -99   -99   -99   -99   -99 -99
 5 88136 FE003   -99     1    30   -99   -99   -99   -99   -99 -99
 5 88143 FE003   -99     1    50   -99   -99   -99   -99   -99 -99
 5 88150 FE003   -99     1    61   -99   -99   -99   -99   -99 -99
 5 88157 FE003   -99     1    37   -99   -99   -99   -99   -99 -99
 5 88164 FE003   -99     1    25   -99   -99   -99   -99   -99 -99
 5 88171 FE003   -99     1    47   -99   -99   -99   -99   -99 -99