*EXP.DETAILS: WAPA9402PT PATERSON, WASHINGTON - 1994

*GENERAL
@PEOPLE
Hodges et al
@ADDRESS
USDA, Prosser, WA
@SITE
Paterson, Benton county, WA
@NOTES
Simulation of potato yield, nitrate leaching, and profit margins as influenced by irrigation
and nitrogen management in different soils and production regions
Prem Woli, Gerrit Hoogenboom, Ashok Alva
Agricultural Water Management 171 (2016) 120–130

*TREATMENTS                        -------------FACTOR LEVELS------------
@N R O C TNAME.................... CU FL SA IC MP MI MF MR MC MT ME MH SM
 1 1 1 0 I1 T1 Russet Burbank       1  1  0  1  1  1  1  1  0  1  0  1  1
 2 1 1 0 I1 T1 Hilite Russet        2  1  0  1  1  1  1  1  0  1  0  1  1
 3 1 1 0 I1 T2 Russet Burbank       1  1  0  1  1  1  1  1  0  2  0  1  1
 4 1 1 0 I1 T2 Hilite Russet        2  1  0  1  1  1  1  1  0  2  0  1  1
 5 1 1 0 I1 T3 Russet Burbank       1  1  0  1  1  1  1  1  0  3  0  1  1
 6 1 1 0 I1 T3 Hilite Russet        2  1  0  1  1  1  1  1  0  3  0  1  1

*CULTIVARS
@C CR INGENO CNAME
 1 PT IB0003 Russet Burbank
 2 PT IB0018 Hilite Russet

*FIELDS
@L ID_FIELD WSTA....  FLSA  FLOB  FLDT  FLDD  FLDS  FLST SLTX  SLDP  ID_SOIL    FLNAME
 1 WAPA0003 WAPA9401   -99   -99   -99   -99   -99   -99 S      -99  WAPA920016 -99
@L ...........XCRD ...........YCRD .....ELEV .............AREA .SLEN .FLWR .SLAS FLHST FHDUR
 1             -99             -99       -99               -99   -99   -99   -99   -99   -99

*SOIL ANALYSIS
@A SADAT  SMHB  SMPX  SMKE  SANAME
 1 94060   -99   -99   -99  -99
@A  SABL  SADM  SAOC  SANI SAPHW SAPHB  SAPX  SAKE  SASC
 1    15   -99   -99   -99   -99   -99   -99   -99   -99

*INITIAL CONDITIONS
@C   PCR ICDAT  ICRT  ICND  ICRN  ICRE  ICWD ICRES ICREN ICREP ICRIP ICRID ICNAME
 1    MZ 94060   200   -99     1     1   -99   -99   .21   -99    95    30 -99
@C  ICBL  SH2O  SNH4  SNO3
 1    15   .26     5     4
 1    30  .304     4     3
 1    60   .28     2     2

*PLANTING DETAILS
@P PDATE EDATE  PPOP  PPOE  PLME  PLDS  PLRS  PLRD  PLDP  PLWT  PAGE  PENV  PLPH  SPRL                        PLNAME
 1 94095   -99  4.56  4.56     S     R  86.4   -99    15  2576   -99   -99   -99    10                        -99
 2 94095   -99  4.56  4.56     S     R  86.4   -99     5  2576   -99   -99   -99     2                        -99

*IRRIGATION AND WATER MANAGEMENT
@I  EFIR  IDEP  ITHR  IEPT  IOFF  IAME  IAMT IRNAME
 1   .95    30    50   100 GS000 IR001    10 Full
@I IDATE  IROP IRVAL
 1 94088 IR004    13
 1 94105 IR004   6.4
 1 94113 IR004   6.4
 1 94119 IR004   6.4
 1 94124 IR004   6.4
 1 94126 IR004   6.4
 1 94129 IR004   6.4
 1 94130 IR004   6.4
 1 94131 IR004   6.4
 1 94132 IR004   6.4
 1 94133 IR004   6.4
 1 94134 IR004   6.4
 1 94135 IR004   6.4
 1 94145 IR004   6.4
 1 94146 IR004  12.7
 1 94147 IR004   6.4
 1 94148 IR004   6.4
 1 94149 IR004   6.4
 1 94150 IR004   6.4
 1 94151 IR004   6.4
 1 94154 IR004   6.4
 1 94155 IR004   6.4
 1 94156 IR004   6.4
 1 94158 IR004   6.4
 1 94159 IR004   6.4
 1 94161 IR004   6.4
 1 94162 IR004   6.4
 1 94163 IR004   6.4
 1 94164 IR004   6.4
 1 94165 IR004   6.4
 1 94167 IR004   6.4
 1 94168 IR004   6.4
 1 94169 IR004   6.4
 1 94170 IR004   6.4
 1 94171 IR004   6.4
 1 94172 IR004   6.4
 1 94173 IR004   6.4
 1 94174 IR004   6.4
 1 94175 IR004   6.4
 1 94176 IR004   6.4
 1 94177 IR004   6.4
 1 94179 IR004  12.7
 1 94180 IR004   6.4
 1 94181 IR004   6.4
 1 94182 IR004   6.4
 1 94183 IR004  12.7
 1 94187 IR004  12.7
 1 94188 IR004   6.4
 1 94189 IR004   6.4
 1 94190 IR004  12.7
 1 94191 IR004   6.4
 1 94192 IR004  12.7
 1 94193 IR004   6.4
 1 94194 IR004   6.4
 1 94195 IR004   6.4
 1 94196 IR004   6.4
 1 94197 IR004   6.4
 1 94198 IR004   6.4
 1 94199 IR004   6.4
 1 94200 IR004   6.4
 1 94201 IR004   6.4
 1 94202 IR004   6.4
 1 94203 IR004   6.4
 1 94204 IR004   6.4
 1 94205 IR004   6.4
 1 94206 IR004   6.4
 1 94207 IR004   6.4
 1 94208 IR004   6.4
 1 94209 IR004   6.4
 1 94210 IR004   6.4
 1 94211 IR004   6.4
 1 94212 IR004   6.4
 1 94213 IR004   6.4
 1 94214 IR004   6.4
 1 94215 IR004   6.4
 1 94216 IR004   6.4
 1 94217 IR004   6.4
 1 94218 IR004   6.4
 1 94219 IR004   6.4
 1 94220 IR004   6.4
 1 94222 IR004   6.4
 1 94223 IR004   6.4
 1 94224 IR004   6.4
 1 94226 IR004   6.4
 1 94227 IR004   6.4
@I  EFIR  IDEP  ITHR  IEPT  IOFF  IAME  IAMT IRNAME
 2     1    30    50   100 GS000 IR001    10 Deficit
@I IDATE  IROP IRVAL
 2 94088 IR004  11.1
 2 94105 IR004   5.4
 2 94113 IR004   5.4
 2 94119 IR004   5.4
 2 94124 IR004   5.4
 2 94126 IR004   5.4
 2 94129 IR004   5.4
 2 94130 IR004   5.4
 2 94131 IR004   5.4
 2 94132 IR004   5.4
 2 94133 IR004   5.4
 2 94134 IR004   5.4
 2 94135 IR004   5.4
 2 94145 IR004   5.4
 2 94146 IR004  10.8
 2 94147 IR004   5.4
 2 94148 IR004   5.4
 2 94149 IR004   5.4
 2 94150 IR004   5.4
 2 94151 IR004   5.4
 2 94154 IR004   5.4
 2 94155 IR004   5.4
 2 94156 IR004   5.4
 2 94158 IR004   5.4
 2 94159 IR004   5.4
 2 94161 IR004   5.4
 2 94162 IR004   5.4
 2 94163 IR004   5.4
 2 94164 IR004   5.4
 2 94165 IR004   4.4
 2 94167 IR004   5.4
 2 94168 IR004   5.4
 2 94169 IR004   5.4
 2 94170 IR004   5.4
 2 94171 IR004   5.4
 2 94172 IR004   5.4
 2 94173 IR004   5.4
 2 94174 IR004   5.4
 2 94175 IR004   5.4
 2 94176 IR004   5.4
 2 94177 IR004   5.4
 2 94179 IR004  10.8
 2 94180 IR004   5.4
 2 94181 IR004   5.4
 2 94182 IR004   5.4
 2 94183 IR004  10.8
 2 94187 IR004  10.8
 2 94188 IR004   5.4
 2 94189 IR004   5.4
 2 94190 IR004  10.8
 2 94191 IR004   5.4
 2 94192 IR004  10.8
 2 94193 IR004   5.4
 2 94194 IR004   5.4
 2 94195 IR004   5.4
 2 94196 IR004   5.4
 2 94197 IR004   5.4
 2 94198 IR004   5.4
 2 94199 IR004   5.4
 2 94200 IR004   5.4
 2 94201 IR004   5.4
 2 94202 IR004   5.4
 2 94203 IR004   5.4
 2 94204 IR004   5.4
 2 94205 IR004   5.4
 2 94206 IR004   5.4
 2 94207 IR004   5.4
 2 94208 IR004   5.4
 2 94209 IR004   5.4
 2 94210 IR004   5.4
 2 94211 IR004   5.4
 2 94212 IR004   5.4
 2 94213 IR004   5.4
 2 94214 IR004   5.4
 2 94215 IR004   5.4
 2 94216 IR004   5.4
 2 94217 IR004   5.4
 2 94218 IR004   5.4
 2 94219 IR004   5.4
 2 94220 IR004   5.4
 2 94222 IR004   5.4
 2 94223 IR004   5.4
 2 94224 IR004   5.4
 2 94226 IR004   5.4
 2 94227 IR004   5.4

*FERTILIZERS (INORGANIC)
@F FDATE  FMCD  FACD  FDEP  FAMN  FAMP  FAMK  FAMC  FAMO  FOCD FERNAME
 1 94081 FE005 AP002    10   112   -99   -99   -99   -99   -99 -99
 1 94141 FE005 AP005     1    22   -99   -99   -99   -99   -99 -99
 1 94145 FE005 AP005     1    28   -99   -99   -99   -99   -99 -99
 1 94149 FE005 AP005     1    28   -99   -99   -99   -99   -99 -99
 1 94154 FE005 AP005     1    28   -99   -99   -99   -99   -99 -99
 1 94161 FE005 AP005     1    28   -99   -99   -99   -99   -99 -99
 1 94167 FE005 AP005     1    28   -99   -99   -99   -99   -99 -99
 1 94172 FE005 AP005     1    28   -99   -99   -99   -99   -99 -99
 1 94180 FE005 AP005     1    28   -99   -99   -99   -99   -99 -99
 1 94188 FE005 AP005     1    28   -99   -99   -99   -99   -99 -99
 1 94193 FE005 AP005     1    29   -99   -99   -99   -99   -99 -99
 1 94201 FE005 AP005     1    28   -99   -99   -99   -99   -99 -99
 1 94207 FE005 AP005     1    14   -99   -99   -99   -99   -99 -99
 1 94215 FE005 AP005     1    28   -99   -99   -99   -99   -99 -99
 1 94222 FE005 AP005     1    14   -99   -99   -99   -99   -99 -99

*RESIDUES AND ORGANIC FERTILIZER
@R RDATE  RCOD  RAMT  RESN  RESP  RESK  RINP  RDEP  RMET RENAME
 1 94060 RE203  1500  1.06   .23  1.75    30    15 AP002 -99

*CHEMICAL APPLICATIONS
@C CDATE CHCOD CHAMT  CHME CHDEP   CHT..CHNAME
 1 94060   -99   -99   -99   -99   -99  -99

*TILLAGE AND ROTATIONS
@T TDATE TIMPL  TDEP TNAME
 1 94060 TI011    15 -99
 1 94095 TI033    15 -99
 1 94111 TI013    15 -99
 1 94112 TI026    15 -99
 2 94060 TI011     5 -99
 2 94095 TI033    15 -99
 2 94111 TI013    15 -99
 2 94112 TI026     5 -99
 3 94060 TI011     5 -99
 3 94095 TI034     5 -99
 3 94111 TI014     3 -99

*ENVIRONMENT MODIFICATIONS
@E ODATE EDAY  ERAD  EMAX  EMIN  ERAIN ECO2  EDEW  EWIND ENVNAME  
 1 94060 A   0 A   0 A   0 A   0 A 0.0 A   0 A   0 A   0 

*HARVEST DETAILS
@H HDATE  HSTG  HCOM HSIZE   HPC  HBPC HNAME
 1 94227 GS000   -99   -99   -99   -99 Potato

*SIMULATION CONTROLS
@N GENERAL     NYERS NREPS START SDATE RSEED SNAME.................... SMODEL
 1 GE              1     1     S 94060  2150 DEFAULT SIMULATION CONTR
@N OPTIONS     WATER NITRO SYMBI PHOSP POTAS DISES  CHEM  TILL   CO2
 1 OP              Y     Y     Y     N     N     N     N     Y     M
@N METHODS     WTHER INCON LIGHT EVAPO INFIL PHOTO HYDRO NSWIT MESOM MESEV MESOL
 1 ME              M     M     E     R     S     C     R     1     G     S     2
@N MANAGEMENT  PLANT IRRIG FERTI RESID HARVS
 1 MA              R     R     R     R     R
@N OUTPUTS     FNAME OVVEW SUMRY FROPT GROUT CAOUT WAOUT NIOUT MIOUT DIOUT VBOSE CHOUT OPOUT FMOPT
 1 OU              N     Y     Y     1     Y     Y     Y     Y     N     N     Y     N     Y      

@  AUTOMATIC MANAGEMENT
@N PLANTING    PFRST PLAST PH2OL PH2OU PH2OD PSTMX PSTMN
 1 PL          00001 00001    40   100    30    40    10
@N IRRIGATION  IMDEP ITHRL ITHRU IROFF IMETH IRAMT IREFF
 1 IR             30   100   100 GS000 IR001    10     1
@N NITROGEN    NMDEP NMTHR NAMNT NCODE NAOFF
 1 NI             30    50    25 FE001 GS000
@N RESIDUES    RIPCN RTIME RIDEP
 1 RE            100     1    20
@N HARVEST     HFRST HLAST HPCNP HPCNR
 1 HA              0 00001   100     0



