*EXP.DETAILS: WAPA9502PT PATERSON, WASHINGTON - 1995

*GENERAL
@PEOPLE
Hodges et al
@ADDRESS
USDA, Prosser, WA
@SITE
Paterson, Benton county, WA
@NOTES
Simulation of potato yield, nitrate leaching, and profit margins as influenced by irrigation
and nitrogen management in different soils and production regions
Prem Woli, Gerrit Hoogenboom, Ashok Alva
Agricultural Water Management 171 (2016) 120–130

*TREATMENTS                        -------------FACTOR LEVELS------------
@N R O C TNAME.................... CU FL SA IC MP MI MF MR MC MT ME MH SM
 1 1 1 0 I1 T1 Russet Burbank       1  1  0  1  1  1  1  1  0  1  0  1  1
 2 1 1 0 I1 T1 Hilite Russet        2  1  0  1  1  1  1  1  0  1  0  1  1
 3 1 1 0 I1 T2 Russet Burbank       1  1  0  1  1  1  1  1  0  2  0  1  1
 4 1 1 0 I1 T2 Hilite Russet        2  1  0  1  1  1  1  1  0  2  0  1  1
 5 1 1 0 I1 T3 Russet Burbank       1  1  0  1  1  1  1  1  0  3  0  1  1
 6 1 1 0 I1 T3 Hilite Russet        2  1  0  1  1  1  1  1  0  3  0  1  1

*CULTIVARS
@C CR INGENO CNAME
 1 PT IB0003 Russet Burbank
 2 PT IB0018 Hilite Russet

*FIELDS
@L ID_FIELD WSTA....  FLSA  FLOB  FLDT  FLDD  FLDS  FLST SLTX  SLDP  ID_SOIL    FLNAME
 1 WAPA0004 WAPA       -99   -99   -99   -99   -99   -99 S      -99  WAPA920016 -99
@L ...........XCRD ...........YCRD .....ELEV .............AREA .SLEN .FLWR .SLAS FLHST FHDUR
 1             -99             -99       -99               -99   -99   -99   -99   -99   -99

*SOIL ANALYSIS
@A SADAT  SMHB  SMPX  SMKE  SANAME
 1 95060   -99   -99   -99  -99
@A  SABL  SADM  SAOC  SANI SAPHW SAPHB  SAPX  SAKE  SASC
 1    15   -99   -99   -99   -99   -99   -99   -99   -99

*INITIAL CONDITIONS
@C   PCR ICDAT  ICRT  ICND  ICRN  ICRE  ICWD ICRES ICREN ICREP ICRIP ICRID ICNAME
 1    MZ 95060   200   -99     1     1   -99   -99   .21   -99    90    30 -99
@C  ICBL  SH2O  SNH4  SNO3
 1    15   .26     4     3
 1    30  .304     2     2
 1    60   .28     1     1

*PLANTING DETAILS
@P PDATE EDATE  PPOP  PPOE  PLME  PLDS  PLRS  PLRD  PLDP  PLWT  PAGE  PENV  PLPH  SPRL                        PLNAME
 1 95095   -99  4.56  4.56     S     R  86.4   -99    15  2576   -99   -99   -99    10                        -99
 2 95095   -99  4.56  4.56     S     R  86.4   -99     5  2576   -99   -99   -99     2                        -99

*IRRIGATION AND WATER MANAGEMENT
@I  EFIR  IDEP  ITHR  IEPT  IOFF  IAME  IAMT IRNAME
 1   .95    30    50   100 GS000 IR001    10 Full
@I IDATE  IROP IRVAL
 1 95088 IR004  12.7
 1 95125 IR004   6.4
 1 95140 IR004   6.4
 1 95144 IR004   6.4
 1 95145 IR004   6.4
 1 95146 IR004   6.4
 1 95147 IR004   6.4
 1 95148 IR004   6.4
 1 95149 IR004   6.4
 1 95150 IR004   6.4
 1 95151 IR004   6.4
 1 95152 IR004   6.4
 1 95153 IR004  12.7
 1 95155 IR004   6.4
 1 95156 IR004   6.4
 1 95157 IR004   6.4
 1 95159 IR004   6.4
 1 95161 IR004   6.4
 1 95163 IR004   6.4
 1 95166 IR004   6.4
 1 95170 IR004   6.4
 1 95171 IR004   6.4
 1 95173 IR004   6.4
 1 95174 IR004   6.4
 1 95176 IR004   6.4
 1 95177 IR004   6.4
 1 95178 IR004   6.4
 1 95179 IR004   6.4
 1 95180 IR004   6.4
 1 95181 IR004  12.7
 1 95182 IR004   6.4
 1 95183 IR004   6.4
 1 95184 IR004   6.4
 1 95185 IR004   6.4
 1 95186 IR004   6.4
 1 95187 IR004   6.4
 1 95188 IR004   6.4
 1 95190 IR004   6.4
 1 95191 IR004   6.4
 1 95192 IR004   6.4
 1 95193 IR004   6.4
 1 95194 IR004   3.2
 1 95195 IR004   6.4
 1 95197 IR004   6.4
 1 95198 IR004   6.4
 1 95199 IR004   3.2
 1 95200 IR004   6.4
 1 95201 IR004   6.4
 1 95202 IR004   6.4
 1 95203 IR004   6.4
 1 95204 IR004   6.4
 1 95206 IR004   6.4
 1 95207 IR004  12.7
 1 95208 IR004   6.4
 1 95209 IR004   6.4
 1 95210 IR004   6.4
 1 95212 IR004   6.4
 1 95213 IR004   6.4
 1 95214 IR004   6.4
 1 95215 IR004   6.4
 1 95216 IR004   6.4
 1 95218 IR004   6.4
 1 95219 IR004   6.4
 1 95220 IR004   6.4
 1 95221 IR004   6.4
 1 95222 IR004   6.4
 1 95223 IR004   6.4
 1 95224 IR004   6.4
 1 95225 IR004   6.4
 1 95226 IR004   6.4
 1 95228 IR004   6.4
 1 95229 IR004   6.4
 1 95231 IR004   6.4
 1 95233 IR004   6.4
@I  EFIR  IDEP  ITHR  IEPT  IOFF  IAME  IAMT IRNAME
 2     1    30    50   100 GS000 IR001    10 Deficit
@I IDATE  IROP IRVAL
 2 95088 IR004  12.7
 2 95125 IR004   6.4
 2 95140 IR004   5.1
 2 95144 IR004   3.8
 2 95145 IR004   3.8
 2 95146 IR004   3.8
 2 95147 IR004   5.1
 2 95148 IR004   3.8
 2 95149 IR004   3.8
 2 95150 IR004   3.8
 2 95151 IR004   3.8
 2 95152 IR004   3.8
 2 95153 IR004   7.6
 2 95155 IR004   5.1
 2 95156 IR004   3.8
 2 95157 IR004   3.8
 2 95159 IR004   3.8
 2 95161 IR004   3.8
 2 95163 IR004   3.8
 2 95166 IR004   5.1
 2 95170 IR004   3.8
 2 95171 IR004   5.1
 2 95173 IR004   3.8
 2 95174 IR004   3.8
 2 95176 IR004   3.8
 2 95177 IR004   3.8
 2 95178 IR004   5.1
 2 95179 IR004   3.8
 2 95180 IR004   3.8
 2 95181 IR004   7.6
 2 95182 IR004   3.8
 2 95183 IR004   3.8
 2 95184 IR004   3.8
 2 95185 IR004   5.1
 2 95186 IR004   5.4
 2 95187 IR004   5.4
 2 95188 IR004   5.4
 2 95190 IR004   6.4
 2 95191 IR004   5.4
 2 95192 IR004   5.4
 2 95193 IR004   5.4
 2 95194 IR004   3.2
 2 95195 IR004   6.4
 2 95197 IR004   5.4
 2 95198 IR004   5.4
 2 95199 IR004   3.2
 2 95200 IR004   5.4
 2 95201 IR004   5.4
 2 95202 IR004   5.4
 2 95203 IR004   5.4
 2 95204 IR004   5.4
 2 95206 IR004   5.4
 2 95207 IR004  10.8
 2 95208 IR004   5.4
 2 95209 IR004   5.4
 2 95210 IR004   5.4
 2 95212 IR004   5.4
 2 95213 IR004   5.4
 2 95214 IR004   5.4
 2 95215 IR004   5.4
 2 95216 IR004   5.4
 2 95218 IR004   5.4
 2 95219 IR004   5.4
 2 95220 IR004   5.4
 2 95221 IR004   5.4
 2 95222 IR004   5.4
 2 95223 IR004   5.4
 2 95224 IR004   5.4
 2 95225 IR004   5.4
 2 95226 IR004   5.4
 2 95228 IR004   5.4
 2 95229 IR004   5.4
 2 95231 IR004   5.4
 2 95233 IR004   5.4

*FERTILIZERS (INORGANIC)
@F FDATE  FMCD  FACD  FDEP  FAMN  FAMP  FAMK  FAMC  FAMO  FOCD FERNAME
 1 95086 FE005 AP002    20   112   -99   -99   -99   -99   -99 -99
 1 95140 FE005 AP005     1    28   -99   -99   -99   -99   -99 -99
 1 95147 FE005 AP005     1    28   -99   -99   -99   -99   -99 -99
 1 95155 FE005 AP005     1    28   -99   -99   -99   -99   -99 -99
 1 95166 FE005 AP005     1    28   -99   -99   -99   -99   -99 -99
 1 95171 FE005 AP005     1    28   -99   -99   -99   -99   -99 -99
 1 95178 FE005 AP005     1    28   -99   -99   -99   -99   -99 -99
 1 95185 FE005 AP005     1    28   -99   -99   -99   -99   -99 -99
 1 95190 FE005 AP005     1    29   -99   -99   -99   -99   -99 -99
 1 95195 FE005 AP005     1    28   -99   -99   -99   -99   -99 -99
 1 95206 FE005 AP005     1    28   -99   -99   -99   -99   -99 -99
 1 95210 FE005 AP005     1    28   -99   -99   -99   -99   -99 -99
 1 95213 FE005 AP005     1    28   -99   -99   -99   -99   -99 -99
 1 95222 FE005 AP005     1    22   -99   -99   -99   -99   -99 -99

*RESIDUES AND ORGANIC FERTILIZER
@R RDATE  RCOD  RAMT  RESN  RESP  RESK  RINP  RDEP  RMET RENAME
 1 95060 RE203  1500  1.06   .23  1.75    30    15 AP002 -99

*CHEMICAL APPLICATIONS
@C CDATE CHCOD CHAMT  CHME CHDEP   CHT..CHNAME
 1 95060   -99   -99   -99   -99   -99  -99

*TILLAGE AND ROTATIONS
@T TDATE TIMPL  TDEP TNAME
 1 95060 TI011    15 -99
 1 95090 TI010    10 -99
 1 95095 TI033    15 -99
 1 95121 TI013    15 -99
 1 95122 TI026    15 -99
 2 95060 TI011    10 -99
 2 95090 TI010     5 -99
 2 95095 TI033    15 -99
 2 95121 TI013    15 -99
 2 95122 TI026     5 -99
 3 95060 TI007     5 -99
 3 95095 TI034     5 -99
 3 95121 TI014     3 -99

*ENVIRONMENT MODIFICATIONS
@E ODATE EDAY  ERAD  EMAX  EMIN  ERAIN ECO2  EDEW  EWIND ENVNAME  
 1 95060 A   0 A   0 A   0 A   0 A 0.0 A   0 A   0 A   0 

*HARVEST DETAILS
@H HDATE  HSTG  HCOM HSIZE   HPC  HBPC HNAME
 1 95225 GS000   -99   -99   -99   -99 Potato

*SIMULATION CONTROLS
@N GENERAL     NYERS NREPS START SDATE RSEED SNAME.................... SMODEL
 1 GE              1     1     S 95060  2150 100%
@N OPTIONS     WATER NITRO SYMBI PHOSP POTAS DISES  CHEM  TILL   CO2
 1 OP              Y     Y     Y     N     N     N     N     Y     M
@N METHODS     WTHER INCON LIGHT EVAPO INFIL PHOTO HYDRO NSWIT MESOM MESEV MESOL
 1 ME              M     M     E     R     S     C     R     1     G     S     2
@N MANAGEMENT  PLANT IRRIG FERTI RESID HARVS
 1 MA              R     R     R     R     R
@N OUTPUTS     FNAME OVVEW SUMRY FROPT GROUT CAOUT WAOUT NIOUT MIOUT DIOUT VBOSE CHOUT OPOUT FMOPT
 1 OU              N     Y     Y     1     Y     Y     Y     Y     N     N     Y     N     Y      

@  AUTOMATIC MANAGEMENT
@N PLANTING    PFRST PLAST PH2OL PH2OU PH2OD PSTMX PSTMN
 1 PL          95001 95001    40   100    30    40    10
@N IRRIGATION  IMDEP ITHRL ITHRU IROFF IMETH IRAMT IREFF
 1 IR             30    50   100 GS000 IR001    10     1
@N NITROGEN    NMDEP NMTHR NAMNT NCODE NAOFF
 1 NI             30    50    25 FE001 GS000
@N RESIDUES    RIPCN RTIME RIDEP
 1 RE            100     1    20
@N HARVEST     HFRST HLAST HPCNP HPCNR
 1 HA              0 99001   100     0



