*EXP.DETAILS: WAPA9202PT PATERSON, WASHINGTON - 1992

*GENERAL
@PEOPLE
Hodges et al
@ADDRESS
USDA, Prosser, WA
@SITE
Paterson, Benton county, WA
@NOTES
Simulation of potato yield, nitrate leaching, and profit margins as influenced by irrigation
and nitrogen management in different soils and production regions
Prem Woli, Gerrit Hoogenboom, Ashok Alva
Agricultural Water Management 171 (2016) 120–130

*TREATMENTS                        -------------FACTOR LEVELS------------
@N R O C TNAME.................... CU FL SA IC MP MI MF MR MC MT ME MH SM
 1 1 1 0 I1 T1 Russet Burbank       1  1  0  1  1  1  1  0  0  1  0  1  1
 2 1 1 0 I1 T1 Hilite Russet        2  1  0  1  1  1  1  0  0  1  0  1  1
 3 1 1 0 I1 T2 Russet Burbank       1  1  0  1  1  1  1  0  0  2  0  1  1
 4 1 1 0 I1 T2 Hilite Russet        2  1  0  1  1  1  1  0  0  2  0  1  1
 5 1 1 0 I1 T3 Russet Burbank       1  1  0  1  1  1  1  0  0  3  0  1  1
 6 1 1 0 I1 T3 Hilite Russet        2  1  0  1  1  1  1  0  0  3  0  1  1

*CULTIVARS
@C CR INGENO CNAME
 1 PT IB0003 Russet Burbank
 2 PT IB0018 Hilite Russet

*FIELDS
@L ID_FIELD WSTA....  FLSA  FLOB  FLDT  FLDD  FLDS  FLST SLTX  SLDP  ID_SOIL    FLNAME
 1 WAPA0001 WAPA       -99   -99   -99   -99   -99   -99 S      -99  WAPA920016 -99
@L ...........XCRD ...........YCRD .....ELEV .............AREA .SLEN .FLWR .SLAS FLHST FHDUR
 1             -99             -99       -99               -99   -99   -99   -99   -99   -99

*SOIL ANALYSIS
@A SADAT  SMHB  SMPX  SMKE  SANAME
 1 92061   -99   -99   -99  -99
@A  SABL  SADM  SAOC  SANI SAPHW SAPHB  SAPX  SAKE  SASC
 1    15   -99   -99   -99   -99   -99   -99   -99   -99

*INITIAL CONDITIONS
@C   PCR ICDAT  ICRT  ICND  ICRN  ICRE  ICWD ICRES ICREN ICREP ICRIP ICRID ICNAME
 1    FA 92061   -99   -99   -99   -99   -99   -99   -99   -99   -99   -99 -99
@C  ICBL  SH2O  SNH4  SNO3
 1    15   .15    .1     1
 1    30   .15    .1     1
 1    60   .15    .1     1

*PLANTING DETAILS
@P PDATE EDATE  PPOP  PPOE  PLME  PLDS  PLRS  PLRD  PLDP  PLWT  PAGE  PENV  PLPH  SPRL                        PLNAME
 1 92102   -99  4.56  4.56     S     R  86.4   -99    15  2576   -99   -99   -99    10                        -99
 2 92102   -99  4.56  4.56     S     R  86.4   -99     5  2576   -99   -99   -99    10                        -99

*IRRIGATION AND WATER MANAGEMENT
@I  EFIR  IDEP  ITHR  IEPT  IOFF  IAME  IAMT IRNAME
 1   .95    30    50   100 GS000 IR001    10 Full
@I IDATE  IROP IRVAL
 1 92120 IR004   6.1
 1 92122 IR004   6.6
 1 92125 IR004   5.8
 1 92126 IR004   5.4
 1 92127 IR004   6.2
 1 92128 IR004   5.4
 1 92129 IR004     6
 1 92130 IR004   5.3
 1 92133 IR004   6.5
 1 92134 IR004   5.8
 1 92139 IR004   4.1
 1 92140 IR004   5.2
 1 92141 IR004   4.4
 1 92142 IR004   5.9
 1 92143 IR004   5.9
 1 92144 IR004     8
 1 92145 IR004   6.1
 1 92146 IR004   6.2
 1 92147 IR004   4.9
 1 92148 IR004   5.8
 1 92149 IR004   5.7
 1 92151 IR004   6.2
 1 92152 IR004   5.3
 1 92153 IR004  10.5
 1 92154 IR004  10.6
 1 92155 IR004   9.6
 1 92156 IR004   9.4
 1 92158 IR004  11.4
 1 92159 IR004   9.5
 1 92160 IR004   5.8
 1 92161 IR004   4.8
 1 92162 IR004   5.5
 1 92163 IR004   6.1
 1 92167 IR004   5.8
 1 92168 IR004  10.4
 1 92169 IR004     0
 1 92171 IR004   7.1
 1 92172 IR004   3.9
 1 92173 IR004     0
 1 92174 IR004   9.7
 1 92175 IR004  10.5
 1 92176 IR004     0
 1 92177 IR004   7.8
 1 92178 IR004   5.3
 1 92180 IR004  10.5
 1 92181 IR004     5
 1 92182 IR004  10.6
 1 92183 IR004    10
 1 92184 IR004  10.4
 1 92185 IR004   6.1
 1 92186 IR004  10.7
 1 92187 IR004  11.3
 1 92188 IR004   5.9
 1 92189 IR004     7
 1 92190 IR004   6.3
 1 92191 IR004   9.9
 1 92192 IR004   5.8
 1 92193 IR004   7.2
 1 92194 IR004   8.6
 1 92196 IR004   9.2
 1 92197 IR004     6
 1 92198 IR004   9.4
 1 92199 IR004     6
 1 92200 IR004    11
 1 92201 IR004   5.8
 1 92203 IR004  10.5
 1 92209 IR004   5.7
 1 92211 IR004   5.9
 1 92212 IR004   5.4
 1 92213 IR004   5.7
 1 92216 IR004   9.1
 1 92217 IR004     5
 1 92219 IR004   6.5
 1 92220 IR004   5.2
 1 92226 IR004   6.4
@I  EFIR  IDEP  ITHR  IEPT  IOFF  IAME  IAMT IRNAME
 2     1    30    50   100 GS000 IR001    10 Deficit
@I IDATE  IROP IRVAL
 2 92120 IR004     6
 2 92122 IR004   6.1
 2 92125 IR004   5.6
 2 92126 IR004   5.4
 2 92127 IR004   6.3
 2 92128 IR004   5.1
 2 92129 IR004   5.5
 2 92130 IR004   5.2
 2 92133 IR004     7
 2 92134 IR004   6.3
 2 92139 IR004   3.8
 2 92140 IR004   4.6
 2 92141 IR004     4
 2 92142 IR004   5.3
 2 92143 IR004     5
 2 92144 IR004   7.6
 2 92145 IR004   5.5
 2 92146 IR004   5.7
 2 92147 IR004   4.2
 2 92148 IR004   5.4
 2 92149 IR004   4.8
 2 92151 IR004   5.6
 2 92152 IR004   4.9
 2 92153 IR004   9.9
 2 92154 IR004   8.9
 2 92155 IR004   8.3
 2 92156 IR004   8.6
 2 92158 IR004  10.4
 2 92159 IR004   8.2
 2 92160 IR004   4.8
 2 92161 IR004     4
 2 92162 IR004   5.2
 2 92163 IR004   5.5
 2 92167 IR004   5.5
 2 92168 IR004   8.4
 2 92169 IR004     0
 2 92171 IR004   6.4
 2 92172 IR004   3.4
 2 92173 IR004     0
 2 92174 IR004     9
 2 92175 IR004   9.4
 2 92176 IR004     0
 2 92177 IR004     6
 2 92178 IR004   5.7
 2 92180 IR004   9.6
 2 92181 IR004     4
 2 92182 IR004   9.5
 2 92183 IR004   9.4
 2 92184 IR004   8.8
 2 92185 IR004   6.7
 2 92186 IR004   8.6
 2 92187 IR004  10.1
 2 92188 IR004     5
 2 92189 IR004   6.2
 2 92190 IR004   5.8
 2 92191 IR004   9.2
 2 92192 IR004   6.4
 2 92193 IR004   7.2
 2 92194 IR004   8.2
 2 92196 IR004   8.3
 2 92197 IR004   5.3
 2 92198 IR004   8.4
 2 92199 IR004   6.4
 2 92200 IR004   9.8
 2 92201 IR004   5.2
 2 92203 IR004   9.3
 2 92209 IR004   5.9
 2 92211 IR004   5.3
 2 92212 IR004   5.1
 2 92213 IR004   5.9
 2 92216 IR004   8.5
 2 92217 IR004   4.4
 2 92219 IR004   5.5
 2 92220 IR004   5.5
 2 92226 IR004   7.2

*FERTILIZERS (INORGANIC)
@F FDATE  FMCD  FACD  FDEP  FAMN  FAMP  FAMK  FAMC  FAMO  FOCD FERNAME
 1 92101 FE005 AP002    15   106   -99   -99   -99   -99   -99 -99
 1 92138 FE005 AP005    15    25   -99   -99   -99   -99   -99 -99
 1 92145 FE005 AP005    15    25   -99   -99   -99   -99   -99 -99
 1 92152 FE005 AP005    15    25   -99   -99   -99   -99   -99 -99
 1 92159 FE005 AP005    15    25   -99   -99   -99   -99   -99 -99
 1 92166 FE005 AP005    15    25   -99   -99   -99   -99   -99 -99
 1 92173 FE005 AP005    15    25   -99   -99   -99   -99   -99 -99
 1 92180 FE005 AP005    15    25   -99   -99   -99   -99   -99 -99
 1 92187 FE005 AP005    15    25   -99   -99   -99   -99   -99 -99
 1 92194 FE005 AP005    15    25   -99   -99   -99   -99   -99 -99
 1 92201 FE005 AP005    15    25   -99   -99   -99   -99   -99 -99

*RESIDUES AND ORGANIC FERTILIZER
@R RDATE  RCOD  RAMT  RESN  RESP  RESK  RINP  RDEP  RMET RENAME
 1 92061   -99   -99   -99   -99   -99   -99   -99   -99 -99

*CHEMICAL APPLICATIONS
@C CDATE CHCOD CHAMT  CHME CHDEP   CHT..CHNAME
 1 92092   -99   -99   -99   -99   -99  -99

*TILLAGE AND ROTATIONS
@T TDATE TIMPL  TDEP TNAME
 1 92100 TI033    15 -99
 1 92116 TI013    15 -99
 1 92118 TI026    15 -99
 2 92100 TI033    15 -99
 2 92116 TI013    10 -99
 2 92118 TI026     5 -99
 3 92100 TI034     5 -99

*ENVIRONMENT MODIFICATIONS
@E ODATE EDAY  ERAD  EMAX  EMIN  ERAIN ECO2  EDEW  EWIND ENVNAME  
 1 92061 A   0 A   0 A   0 A   0 A 0.0 A   0 A   0 A   0 

*HARVEST DETAILS
@H HDATE  HSTG  HCOM HSIZE   HPC  HBPC HNAME
 1 92223 GS000   -99   -99   -99   -99 Potato

*SIMULATION CONTROLS
@N GENERAL     NYERS NREPS START SDATE RSEED SNAME.................... SMODEL
 1 GE              1     1     S 92061  2150 DEFAULT SIMULATION CONTR
@N OPTIONS     WATER NITRO SYMBI PHOSP POTAS DISES  CHEM  TILL   CO2
 1 OP              Y     Y     N     N     N     N     N     Y     M
@N METHODS     WTHER INCON LIGHT EVAPO INFIL PHOTO HYDRO NSWIT MESOM MESEV MESOL
 1 ME              M     M     E     R     S     C     R     1     G     S     2
@N MANAGEMENT  PLANT IRRIG FERTI RESID HARVS
 1 MA              R     R     R     R     R
@N OUTPUTS     FNAME OVVEW SUMRY FROPT GROUT CAOUT WAOUT NIOUT MIOUT DIOUT VBOSE CHOUT OPOUT FMOPT
 1 OU              N     Y     Y     1     Y     Y     Y     Y     N     N     Y     N     Y      

@  AUTOMATIC MANAGEMENT
@N PLANTING    PFRST PLAST PH2OL PH2OU PH2OD PSTMX PSTMN
 1 PL          00001 00001    40   100    30    40    10
@N IRRIGATION  IMDEP ITHRL ITHRU IROFF IMETH IRAMT IREFF
 1 IR             30   100   100 IB001 IR004    10     1
@N NITROGEN    NMDEP NMTHR NAMNT NCODE NAOFF
 1 NI             30    50    25 FE001 GS000
@N RESIDUES    RIPCN RTIME RIDEP
 1 RE            100     1    20
@N HARVEST     HFRST HLAST HPCNP HPCNR
 1 HA              0 92227   100     0



