*EXP.DETAILS: WAPA9302PT PATERSON, WASHINGTON - 1993

*GENERAL
@PEOPLE
Hodges et al
@ADDRESS
USDA, Prosser WA
@SITE
Paterson, Benton County
@NOTES
Simulation of potato yield, nitrate leaching, and profit margins asinfluenced by irrigation
and nitrogen management in different soilsand production regions
Prem Woli, Gerrit Hoogenboom, Ashok Alva
Agricultural Water Management 171 (2016) 120–130

*TREATMENTS                        -------------FACTOR LEVELS------------
@N R O C TNAME.................... CU FL SA IC MP MI MF MR MC MT ME MH SM
 1 1 1 0 I1 T1 Russet Burbank       1  1  0  1  1  1  1  1  0  1  0  1  1
 2 1 1 0 I1 T1 Hilite Russet        2  1  0  1  1  1  1  1  0  1  0  1  1
 3 1 1 0 I1 T2 Russet Burbank       1  1  0  1  1  1  1  1  0  2  0  1  1
 4 1 1 0 I1 T2 Hilite Russet        2  1  0  1  1  1  1  1  0  2  0  1  1
 5 1 1 0 I1 T3 Russet Burbank       1  1  0  1  1  1  1  1  0  3  0  1  1
 6 1 1 0 I1 T3 Hilite Russet        2  1  0  1  1  1  1  1  0  3  0  1  1

*CULTIVARS
@C CR INGENO CNAME
 1 PT IB0003 Russet Burbank
 2 PT IB0018 Hilite Russet

*FIELDS
@L ID_FIELD WSTA....  FLSA  FLOB  FLDT  FLDD  FLDS  FLST SLTX  SLDP  ID_SOIL    FLNAME
 1 WAPA9302 WAPA       -99   -99   -99   -99   -99   -99 S      -99  WAPA920016 -99
@L ...........XCRD ...........YCRD .....ELEV .............AREA .SLEN .FLWR .SLAS FLHST FHDUR
 1             -99             -99       -99               -99   -99   -99   -99   -99   -99

*SOIL ANALYSIS
@A SADAT  SMHB  SMPX  SMKE  SANAME
 1 93060   -99   -99   -99  -99
@A  SABL  SADM  SAOC  SANI SAPHW SAPHB  SAPX  SAKE  SASC
 1    15   -99   -99   -99   -99   -99   -99   -99   -99

*INITIAL CONDITIONS
@C   PCR ICDAT  ICRT  ICND  ICRN  ICRE  ICWD ICRES ICREN ICREP ICRIP ICRID ICNAME
 1    MZ 93060   200   -99   -99   -99   -99   -99   .21   -99    95    30 -99
@C  ICBL  SH2O  SNH4  SNO3
 1    15   .26     3     2
 1    30  .304     2     1
 1    60  .304     1    .5

*PLANTING DETAILS
@P PDATE EDATE  PPOP  PPOE  PLME  PLDS  PLRS  PLRD  PLDP  PLWT  PAGE  PENV  PLPH  SPRL                        PLNAME
 1 93096   -99  4.56  4.56     S     R  86.4   -99    15  2576   -99   -99   -99    10                        -99
 2 93096   -99  4.56  4.56     S     R  86.4   -99     5  2576   -99   -99   -99     2                        -99

*IRRIGATION AND WATER MANAGEMENT
@I  EFIR  IDEP  ITHR  IEPT  IOFF  IAME  IAMT IRNAME
 1   .95    30    50   100 GS000 IR001    10 Full
@I IDATE  IROP IRVAL
 1 93111 IR004   6.4
 1 93120 IR004   6.4
 1 93131 IR004   6.4
 1 93133 IR004   6.4
 1 93134 IR004   6.4
 1 93137 IR004   6.4
 1 93139 IR004   6.4
 1 93141 IR004   6.4
 1 93142 IR004   6.4
 1 93143 IR004   6.4
 1 93144 IR004   6.4
 1 93145 IR004   6.4
 1 93146 IR004   6.4
 1 93147 IR004   6.4
 1 93148 IR004   6.4
 1 93150 IR004   6.4
 1 93151 IR004   6.4
 1 93153 IR004   6.4
 1 93154 IR004   6.4
 1 93156 IR004   6.4
 1 93157 IR004   6.4
 1 93158 IR004   6.4
 1 93159 IR004   6.4
 1 93160 IR004   6.4
 1 93162 IR004   6.4
 1 93164 IR004   6.4
 1 93165 IR004   6.4
 1 93166 IR004   6.4
 1 93168 IR004   6.4
 1 93169 IR004   6.4
 1 93170 IR004  12.7
 1 93171 IR004   6.4
 1 93172 IR004   6.4
 1 93174 IR004   6.4
 1 93175 IR004   6.4
 1 93176 IR004   6.4
 1 93177 IR004   6.4
 1 93178 IR004   6.4
 1 93179 IR004   6.4
 1 93180 IR004   6.4
 1 93181 IR004   6.4
 1 93182 IR004   6.4
 1 93183 IR004   6.4
 1 93184 IR004   6.4
 1 93185 IR004   6.4
 1 93186 IR004   6.4
 1 93187 IR004   6.4
 1 93188 IR004  12.7
 1 93189 IR004   6.4
 1 93190 IR004   6.4
 1 93192 IR004   6.4
 1 93193 IR004   6.4
 1 93194 IR004   6.4
 1 93196 IR004   6.4
 1 93197 IR004   6.4
 1 93198 IR004   6.4
 1 93199 IR004   6.4
 1 93200 IR004   6.4
 1 93202 IR004   6.4
 1 93203 IR004   6.4
 1 93204 IR004   6.4
 1 93205 IR004   6.4
 1 93206 IR004   6.4
 1 93207 IR004   6.4
 1 93208 IR004   6.4
 1 93209 IR004   6.4
 1 93210 IR004   6.4
 1 93211 IR004   6.4
 1 93213 IR004   6.4
 1 93214 IR004   6.4
 1 93215 IR004   6.4
 1 93216 IR004   6.4
 1 93217 IR004   6.4
 1 93218 IR004   6.4
 1 93219 IR004   6.4
 1 93220 IR004   6.4
 1 93221 IR004   6.4
 1 93223 IR004   6.4
 1 93224 IR004   6.4
 1 93225 IR004   6.4
 1 93226 IR004   6.4
 1 93228 IR004   6.4
 1 93230 IR004   6.4
 1 93231 IR004   6.4
 1 93232 IR004   6.4
 1 93233 IR004   6.4
 1 93234 IR004   6.4
 1 93235 IR004   6.4
 1 93236 IR004   6.4
 1 93239 IR004   6.4
 1 93242 IR004   6.4
 1 93244 IR004   6.4
 1 93246 IR004   6.4
@I  EFIR  IDEP  ITHR  IEPT  IOFF  IAME  IAMT IRNAME
 2     1    30    50   100 GS000 IR001    10 Deficit
@I IDATE  IROP IRVAL
 2 93111 IR004   5.4
 2 93120 IR004   5.4
 2 93131 IR004   5.4
 2 93133 IR004   5.4
 2 93134 IR004   5.4
 2 93137 IR004   5.4
 2 93139 IR004   5.4
 2 93141 IR004   5.4
 2 93142 IR004   5.4
 2 93143 IR004   5.4
 2 93144 IR004   5.4
 2 93145 IR004   5.4
 2 93146 IR004   5.4
 2 93147 IR004   5.4
 2 93148 IR004   5.4
 2 93150 IR004   5.4
 2 93151 IR004   5.4
 2 93153 IR004   6.4
 2 93154 IR004   5.4
 2 93156 IR004   5.4
 2 93157 IR004   5.4
 2 93158 IR004   5.4
 2 93159 IR004   5.4
 2 93160 IR004   5.4
 2 93162 IR004   5.4
 2 93164 IR004   5.4
 2 93165 IR004   5.4
 2 93166 IR004   5.4
 2 93168 IR004   5.4
 2 93169 IR004   6.4
 2 93170 IR004  10.8
 2 93171 IR004   5.4
 2 93172 IR004   5.4
 2 93174 IR004   5.4
 2 93175 IR004   5.4
 2 93176 IR004   5.4
 2 93177 IR004   5.4
 2 93178 IR004   5.4
 2 93179 IR004   5.4
 2 93180 IR004   5.4
 2 93181 IR004   6.4
 2 93182 IR004   5.4
 2 93183 IR004   5.4
 2 93184 IR004   5.4
 2 93185 IR004   5.4
 2 93186 IR004   5.4
 2 93187 IR004   5.4
 2 93188 IR004  10.8
 2 93189 IR004   5.4
 2 93190 IR004   5.4
 2 93192 IR004   5.4
 2 93193 IR004   5.4
 2 93194 IR004   5.4
 2 93196 IR004   5.4
 2 93197 IR004   5.4
 2 93198 IR004   5.4
 2 93199 IR004   5.4
 2 93200 IR004   5.4
 2 93202 IR004   5.4
 2 93203 IR004   5.4
 2 93204 IR004   5.4
 2 93205 IR004   5.4
 2 93206 IR004   5.4
 2 93207 IR004   5.4
 2 93208 IR004   5.4
 2 93209 IR004   5.4
 2 93210 IR004   5.4
 2 93211 IR004   5.4
 2 93213 IR004   5.4
 2 93214 IR004   5.4
 2 93215 IR004   5.4
 2 93216 IR004   5.4
 2 93217 IR004   5.4
 2 93218 IR004   5.4
 2 93219 IR004   5.4
 2 93220 IR004   5.4
 2 93221 IR004   5.4
 2 93223 IR004   5.4
 2 93224 IR004   5.4
 2 93225 IR004   5.4
 2 93226 IR004   5.4
 2 93228 IR004   5.4
 2 93230 IR004   5.4
 2 93231 IR004   5.4
 2 93232 IR004   5.4
 2 93233 IR004   5.4
 2 93234 IR004   5.4
 2 93235 IR004   5.4
 2 93236 IR004   5.4
 2 93239 IR004   5.4
 2 93242 IR004   5.4
 2 93244 IR004   5.4
 2 93246 IR004   5.4

*FERTILIZERS (INORGANIC)
@F FDATE  FMCD  FACD  FDEP  FAMN  FAMP  FAMK  FAMC  FAMO  FOCD FERNAME
 1 93096 FE005 AP002    15   112   -99   -99   -99   -99   -99 -99
 1 93147 FE005 AP005    15    31   -99   -99   -99   -99   -99 -99
 1 93153 FE005 AP005    15    31   -99   -99   -99   -99   -99 -99
 1 93160 FE005 AP005    15    31   -99   -99   -99   -99   -99 -99
 1 93168 FE005 AP005    15    31   -99   -99   -99   -99   -99 -99
 1 93175 FE005 AP005    15    31   -99   -99   -99   -99   -99 -99
 1 93182 FE005 AP005    15    31   -99   -99   -99   -99   -99 -99
 1 93189 FE005 AP005    15    31   -99   -99   -99   -99   -99 -99
 1 93196 FE005 AP005    15    31   -99   -99   -99   -99   -99 -99
 1 93203 FE005 AP005    15    31   -99   -99   -99   -99   -99 -99
 1 93211 FE005 AP005    15    31   -99   -99   -99   -99   -99 -99
 1 93217 FE005 AP005    15    31   -99   -99   -99   -99   -99 -99
 1 93224 FE005 AP005    15    31   -99   -99   -99   -99   -99 -99
 1 93231 FE005 AP005    15    31   -99   -99   -99   -99   -99 -99

*RESIDUES AND ORGANIC FERTILIZER
@R RDATE  RCOD  RAMT  RESN  RESP  RESK  RINP  RDEP  RMET RENAME
 1 93060 RE203  1500  1.06   .23  1.75   100    15 AP002 100% app

*CHEMICAL APPLICATIONS
@C CDATE CHCOD CHAMT  CHME CHDEP   CHT..CHNAME
 1 93060   -99   -99   -99   -99   -99  -99

*TILLAGE AND ROTATIONS
@T TDATE TIMPL  TDEP TNAME
 1 93074 TI011    15 -99
 1 93078 TI025    15 -99
 1 93096 TI033    15 -99
 1 93103 TI013    15 -99
 1 93112 TI026    15 -99
 2 93074 TI011    10 -99
 2 93078 TI025     5 -99
 2 93096 TI033    15 -99
 2 93103 TI013    15 -99
 2 93112 TI026     5 -99
 3 93078 TI007     5 -99
 3 93096 TI034     5 -99
 3 93103 TI014     3 -99

*ENVIRONMENT MODIFICATIONS
@E ODATE EDAY  ERAD  EMAX  EMIN  ERAIN ECO2  EDEW  EWIND ENVNAME  
 1 93060 A   0 A   0 A   0 A   0 A 0.0 A   0 A   0 A   0 

*HARVEST DETAILS
@H HDATE  HSTG  HCOM HSIZE   HPC  HBPC HNAME
 1 93228 GS000   -99   -99   -99   -99 Potato

*SIMULATION CONTROLS
@N GENERAL     NYERS NREPS START SDATE RSEED SNAME.................... SMODEL
 1 GE              1     1     S 93060  2150 DEFAULT SIMULATION CONTR
@N OPTIONS     WATER NITRO SYMBI PHOSP POTAS DISES  CHEM  TILL   CO2
 1 OP              Y     Y     Y     N     N     N     N     Y     M
@N METHODS     WTHER INCON LIGHT EVAPO INFIL PHOTO HYDRO NSWIT MESOM MESEV MESOL
 1 ME              M     M     E     R     S     C     R     1     G     S     2
@N MANAGEMENT  PLANT IRRIG FERTI RESID HARVS
 1 MA              R     R     R     R     R
@N OUTPUTS     FNAME OVVEW SUMRY FROPT GROUT CAOUT WAOUT NIOUT MIOUT DIOUT VBOSE CHOUT OPOUT FMOPT
 1 OU              N     Y     Y     1     Y     Y     Y     Y     N     N     Y     N     Y      

@  AUTOMATIC MANAGEMENT
@N PLANTING    PFRST PLAST PH2OL PH2OU PH2OD PSTMX PSTMN
 1 PL          93001 93001    40   100    30    40    10
@N IRRIGATION  IMDEP ITHRL ITHRU IROFF IMETH IRAMT IREFF
 1 IR             30    50   100 GS000 IR001    10     1
@N NITROGEN    NMDEP NMTHR NAMNT NCODE NAOFF
 1 NI             30    50    25 FE001 GS000
@N RESIDUES    RIPCN RTIME RIDEP
 1 RE            100     1    20
@N HARVEST     HFRST HLAST HPCNP HPCNR
 1 HA              0 93001   100     0



