*EXP.DETAILS: RORO5901FA ROTHAMSTED LONG-TERM FALLOW

*GENERAL
@PEOPLE
ARJAN GIJSMAN
@ADDRESS
CIAT; A.A. 6713; CALI; COLOMBIA; A.GIJSMAN@CGIAR.ORG
@SITE
ROTHAMSTED (UK)
@ PAREA  PRNO  PLEN  PLDR  PLSP  PLAY HAREA  HRNO  HLEN  HARM.........
    -99   -99   -99   -99   -99   -99   -99   -99   -99   -99
@NOTES
Experiment started in 1959 by ploughing up a long-term grassland. Ploughed four times per
year after that. Residues from weeds: 200 kg[C]/ha per year ==> 500 kg[DM]. Dry and wet N
deposition: 40-50 kg[N]/ha per year (here applied as fertilizer)


*TREATMENTS                        -------------FACTOR LEVELS------------
@N R O C TNAME.................... CU FL SA IC MP MI MF MR MC MT ME MH SM
 1 0 0 0 FALLOW                     1  1  0  1  0  0  1  1  0  1  0  1  1

*CULTIVARS
@C CR INGENO CNAME
 1 FA IB0001 FALLOW

*FIELDS
@L ID_FIELD WSTA....  FLSA  FLOB  FLDT  FLDD  FLDS  FLST SLTX  SLDP  ID_SOIL    FLNAME
 1 ROTH5901 ROR1         0     0 DR000     0     0 00000 -99    -99  ROTH5901   -99

*SOIL ANALYSIS
@A SADAT  SMHB  SMPX  SMKE  SANAME
 1 59344   -99   -99   -99  -99
@A  SABL  SADM  SAOC  SANI SAPHW SAPHB  SAPX  SAKE  SASC
 1    15   -99   -99   -99   -99   -99   -99   -99   -99

*INITIAL CONDITIONS
@C   PCR ICDAT  ICRT  ICND  ICRN  ICRE  ICWD ICRES ICREN ICREP ICRIP ICRID ICNAME
 1    BH 59344  1000     0   1.5     1   -99  1000   1.5     0   100    23 -99
@C  ICBL  SH2O  SNH4  SNO3
 1     5   .37    .5   2.2
 1    15   .37    .5   2.2
 1    23   .37    .5   2.3
 1    50   .37    .5   2.3
 1   100   .37    .5   2.3
 1   150   .37    .5   2.3

*PLANTING DETAILS
@P PDATE EDATE  PPOP  PPOE  PLME  PLDS  PLRS  PLRD  PLDP  PLWT  PAGE  PENV  PLPH  SPRL                        PLNAME
 1 59001   -99     1     1     S     R    50     0     5   -99   -99   -99   -99   -99                        -99

*FERTILIZERS (INORGANIC)
@F FDATE  FMCD  FACD  FDEP  FAMN  FAMP  FAMK  FAMC  FAMO  FOCD FERNAME
 1 60061 FE001 AP001     0    25     0     0     0     0   -99 -99
 1 60245 FE001 AP001     0    25     0     0     0     0   -99 -99
 1 61061 FE001 AP001     0    25     0     0     0     0   -99 -99
 1 61245 FE001 AP001     0    25     0     0     0     0   -99 -99
 1 62061 FE001 AP001     0    25     0     0     0     0   -99 -99
 1 62245 FE001 AP001     0    25     0     0     0     0   -99 -99
 1 63061 FE001 AP001     0    25     0     0     0     0   -99 -99
 1 63245 FE001 AP001     0    25     0     0     0     0   -99 -99
 1 64061 FE001 AP001     0    25     0     0     0     0   -99 -99
 1 64245 FE001 AP001     0    25     0     0     0     0   -99 -99
 1 65061 FE001 AP001     0    25     0     0     0     0   -99 -99
 1 65245 FE001 AP001     0    25     0     0     0     0   -99 -99
 1 66061 FE001 AP001     0    25     0     0     0     0   -99 -99
 1 66245 FE001 AP001     0    25     0     0     0     0   -99 -99
 1 67061 FE001 AP001     0    25     0     0     0     0   -99 -99
 1 67245 FE001 AP001     0    25     0     0     0     0   -99 -99
 1 68061 FE001 AP001     0    25     0     0     0     0   -99 -99
 1 68245 FE001 AP001     0    25     0     0     0     0   -99 -99
 1 69061 FE001 AP001     0    25     0     0     0     0   -99 -99
 1 69245 FE001 AP001     0    25     0     0     0     0   -99 -99
 1 70061 FE001 AP001     0    25     0     0     0     0   -99 -99
 1 70245 FE001 AP001     0    25     0     0     0     0   -99 -99
 1 71061 FE001 AP001     0    25     0     0     0     0   -99 -99
 1 71245 FE001 AP001     0    25     0     0     0     0   -99 -99
 1 72061 FE001 AP001     0    25     0     0     0     0   -99 -99
 1 72245 FE001 AP001     0    25     0     0     0     0   -99 -99
 1 73061 FE001 AP001     0    25     0     0     0     0   -99 -99
 1 73245 FE001 AP001     0    25     0     0     0     0   -99 -99
 1 74061 FE001 AP001     0    25     0     0     0     0   -99 -99
 1 74245 FE001 AP001     0    25     0     0     0     0   -99 -99
 1 75061 FE001 AP001     0    25     0     0     0     0   -99 -99
 1 75245 FE001 AP001     0    25     0     0     0     0   -99 -99
 1 76061 FE001 AP001     0    25     0     0     0     0   -99 -99
 1 76245 FE001 AP001     0    25     0     0     0     0   -99 -99
 1 77061 FE001 AP001     0    25     0     0     0     0   -99 -99
 1 77245 FE001 AP001     0    25     0     0     0     0   -99 -99
 1 78061 FE001 AP001     0    25     0     0     0     0   -99 -99
 1 78245 FE001 AP001     0    25     0     0     0     0   -99 -99
 1 79061 FE001 AP001     0    25     0     0     0     0   -99 -99
 1 79245 FE001 AP001     0    25     0     0     0     0   -99 -99
 1 80061 FE001 AP001     0    25     0     0     0     0   -99 -99
 1 80245 FE001 AP001     0    25     0     0     0     0   -99 -99
 1 81061 FE001 AP001     0    25     0     0     0     0   -99 -99
 1 81245 FE001 AP001     0    25     0     0     0     0   -99 -99
 1 82061 FE001 AP001     0    25     0     0     0     0   -99 -99
 1 82245 FE001 AP001     0    25     0     0     0     0   -99 -99
 1 83061 FE001 AP001     0    25     0     0     0     0   -99 -99
 1 83245 FE001 AP001     0    25     0     0     0     0   -99 -99
 1 84061 FE001 AP001     0    25     0     0     0     0   -99 -99
 1 84245 FE001 AP001     0    25     0     0     0     0   -99 -99
 1 85061 FE001 AP001     0    25     0     0     0     0   -99 -99
 1 85245 FE001 AP001     0    25     0     0     0     0   -99 -99
 1 86061 FE001 AP001     0    25     0     0     0     0   -99 -99
 1 86245 FE001 AP001     0    25     0     0     0     0   -99 -99
 1 87061 FE001 AP001     0    25     0     0     0     0   -99 -99
 1 87245 FE001 AP001     0    25     0     0     0     0   -99 -99
 1 88061 FE001 AP001     0    25     0     0     0     0   -99 -99
 1 88245 FE001 AP001     0    25     0     0     0     0   -99 -99
 1 89061 FE001 AP001     0    25     0     0     0     0   -99 -99
 1 89245 FE001 AP001     0    25     0     0     0     0   -99 -99
 1 90061 FE001 AP001     0    25     0     0     0     0   -99 -99
 1 90245 FE001 AP001     0    25     0     0     0     0   -99 -99
 1 91061 FE001 AP001     0    25     0     0     0     0   -99 -99
 1 91245 FE001 AP001     0    25     0     0     0     0   -99 -99
 1 92061 FE001 AP001     0    25     0     0     0     0   -99 -99
 1 92245 FE001 AP001     0    25     0     0     0     0   -99 -99
 1 93061 FE001 AP001     0    25     0     0     0     0   -99 -99
 1 93245 FE001 AP001     0    25     0     0     0     0   -99 -99
 1 94061 FE001 AP001     0    25     0     0     0     0   -99 -99
 1 94245 FE001 AP001     0    25     0     0     0     0   -99 -99
 1 95061 FE001 AP001     0    25     0     0     0     0   -99 -99
 1 95245 FE001 AP001     0    25     0     0     0     0   -99 -99
 1 96061 FE001 AP001     0    25     0     0     0     0   -99 -99
 1 96245 FE001 AP001     0    25     0     0     0     0   -99 -99
 1 97061 FE001 AP001     0    25     0     0     0     0   -99 -99
 1 97245 FE001 AP001     0    25     0     0     0     0   -99 -99
 1 98061 FE001 AP001     0    25     0     0     0     0   -99 -99
 1 98245 FE001 AP001     0    25     0     0     0     0   -99 -99
 1 99061 FE001 AP001     0    25     0     0     0     0   -99 -99
 1 99245 FE001 AP001     0    25     0     0     0     0   -99 -99

*RESIDUES AND ORGANIC FERTILIZER
@R RDATE  RCOD  RAMT  RESN  RESP  RESK  RINP  RDEP  RMET RENAME
 1 60091 RE001   500   1.5     0     0     0     0   -99 -99
 1 61091 RE001   500   1.5     0     0     0     0   -99 -99
 1 62091 RE001   500   1.5     0     0     0     0   -99 -99
 1 63091 RE001   500   1.5     0     0     0     0   -99 -99
 1 64091 RE001   500   1.5     0     0     0     0   -99 -99
 1 65091 RE001   500   1.5     0     0     0     0   -99 -99
 1 66091 RE001   500   1.5     0     0     0     0   -99 -99
 1 67091 RE001   500   1.5     0     0     0     0   -99 -99
 1 68091 RE001   500   1.5     0     0     0     0   -99 -99
 1 69091 RE001   500   1.5     0     0     0     0   -99 -99
 1 70091 RE001   500   1.5     0     0     0     0   -99 -99
 1 71091 RE001   500   1.5     0     0     0     0   -99 -99
 1 72091 RE001   500   1.5     0     0     0     0   -99 -99
 1 73091 RE001   500   1.5     0     0     0     0   -99 -99
 1 74091 RE001   500   1.5     0     0     0     0   -99 -99
 1 75091 RE001   500   1.5     0     0     0     0   -99 -99
 1 76091 RE001   500   1.5     0     0     0     0   -99 -99
 1 77091 RE001   500   1.5     0     0     0     0   -99 -99
 1 78091 RE001   500   1.5     0     0     0     0   -99 -99
 1 79091 RE001   500   1.5     0     0     0     0   -99 -99
 1 80091 RE001   500   1.5     0     0     0     0   -99 -99
 1 81091 RE001   500   1.5     0     0     0     0   -99 -99
 1 82091 RE001   500   1.5     0     0     0     0   -99 -99
 1 83091 RE001   500   1.5     0     0     0     0   -99 -99
 1 84091 RE001   500   1.5     0     0     0     0   -99 -99
 1 85091 RE001   500   1.5     0     0     0     0   -99 -99
 1 86091 RE001   500   1.5     0     0     0     0   -99 -99
 1 87091 RE001   500   1.5     0     0     0     0   -99 -99
 1 88091 RE001   500   1.5     0     0     0     0   -99 -99
 1 89091 RE001   500   1.5     0     0     0     0   -99 -99
 1 90091 RE001   500   1.5     0     0     0     0   -99 -99
 1 91091 RE001   500   1.5     0     0     0     0   -99 -99
 1 92091 RE001   500   1.5     0     0     0     0   -99 -99
 1 93091 RE001   500   1.5     0     0     0     0   -99 -99
 1 94091 RE001   500   1.5     0     0     0     0   -99 -99
 1 95091 RE001   500   1.5     0     0     0     0   -99 -99
 1 96091 RE001   500   1.5     0     0     0     0   -99 -99
 1 97091 RE001   500   1.5     0     0     0     0   -99 -99
 1 98091 RE001   500   1.5     0     0     0     0   -99 -99
 1 99091 RE001   500   1.5     0     0     0     0   -99 -99

*TILLAGE AND ROTATIONS
@T TDATE TIMPL  TDEP TNAME
 1 59344 TI005    23 -99
 1 60091 TI005    23 -99
 1 60152 TI005    23 -99
 1 60213 TI005    23 -99
 1 60274 TI005    23 -99
 1 61091 TI005    23 -99
 1 61152 TI005    23 -99
 1 61213 TI005    23 -99
 1 61274 TI005    23 -99
 1 62091 TI005    23 -99
 1 62152 TI005    23 -99
 1 62213 TI005    23 -99
 1 62274 TI005    23 -99
 1 63091 TI005    23 -99
 1 63152 TI005    23 -99
 1 63213 TI005    23 -99
 1 63274 TI005    23 -99
 1 64091 TI005    23 -99
 1 64152 TI005    23 -99
 1 64213 TI005    23 -99
 1 64274 TI005    23 -99
 1 65091 TI005    23 -99
 1 65152 TI005    23 -99
 1 65213 TI005    23 -99
 1 65274 TI005    23 -99
 1 66091 TI005    23 -99
 1 66152 TI005    23 -99
 1 66213 TI005    23 -99
 1 66274 TI005    23 -99
 1 67091 TI005    23 -99
 1 67152 TI005    23 -99
 1 67213 TI005    23 -99
 1 67274 TI005    23 -99
 1 68091 TI005    23 -99
 1 68152 TI005    23 -99
 1 68213 TI005    23 -99
 1 68274 TI005    23 -99
 1 69091 TI005    23 -99
 1 69152 TI005    23 -99
 1 69213 TI005    23 -99
 1 69274 TI005    23 -99
 1 70091 TI005    23 -99
 1 70152 TI005    23 -99
 1 70213 TI005    23 -99
 1 70274 TI005    23 -99
 1 71091 TI005    23 -99
 1 71152 TI005    23 -99
 1 71213 TI005    23 -99
 1 71274 TI005    23 -99
 1 72091 TI005    23 -99
 1 72152 TI005    23 -99
 1 72213 TI005    23 -99
 1 72274 TI005    23 -99
 1 73091 TI005    23 -99
 1 73152 TI005    23 -99
 1 73213 TI005    23 -99
 1 73274 TI005    23 -99
 1 74091 TI005    23 -99
 1 74152 TI005    23 -99
 1 74213 TI005    23 -99
 1 74274 TI005    23 -99
 1 75091 TI005    23 -99
 1 75152 TI005    23 -99
 1 75213 TI005    23 -99
 1 75274 TI005    23 -99
 1 76091 TI005    23 -99
 1 76152 TI005    23 -99
 1 76213 TI005    23 -99
 1 76274 TI005    23 -99
 1 77091 TI005    23 -99
 1 77152 TI005    23 -99
 1 77213 TI005    23 -99
 1 77274 TI005    23 -99
 1 78091 TI005    23 -99
 1 78152 TI005    23 -99
 1 78213 TI005    23 -99
 1 78274 TI005    23 -99
 1 79091 TI005    23 -99
 1 79152 TI005    23 -99
 1 79213 TI005    23 -99
 1 79274 TI005    23 -99
 1 80091 TI005    23 -99
 1 80152 TI005    23 -99
 1 80213 TI005    23 -99
 1 80274 TI005    23 -99
 1 81091 TI005    23 -99
 1 81152 TI005    23 -99
 1 81213 TI005    23 -99
 1 81274 TI005    23 -99
 1 82091 TI005    23 -99
 1 82152 TI005    23 -99
 1 82213 TI005    23 -99
 1 82274 TI005    23 -99
 1 83091 TI005    23 -99
 1 83152 TI005    23 -99
 1 83213 TI005    23 -99
 1 83274 TI005    23 -99
 1 84091 TI005    23 -99
 1 84152 TI005    23 -99
 1 84213 TI005    23 -99
 1 84274 TI005    23 -99
 1 85091 TI005    23 -99
 1 85152 TI005    23 -99
 1 85213 TI005    23 -99
 1 85274 TI005    23 -99
 1 86091 TI005    23 -99
 1 86152 TI005    23 -99
 1 86213 TI005    23 -99
 1 86274 TI005    23 -99
 1 87091 TI005    23 -99
 1 87152 TI005    23 -99
 1 87213 TI005    23 -99
 1 87274 TI005    23 -99
 1 88091 TI005    23 -99
 1 88152 TI005    23 -99
 1 88213 TI005    23 -99
 1 88274 TI005    23 -99
 1 89091 TI005    23 -99
 1 89152 TI005    23 -99
 1 89213 TI005    23 -99
 1 89274 TI005    23 -99
 1 90091 TI005    23 -99
 1 90152 TI005    23 -99
 1 90213 TI005    23 -99
 1 90274 TI005    23 -99
 1 91091 TI005    23 -99
 1 91152 TI005    23 -99
 1 91213 TI005    23 -99
 1 91274 TI005    23 -99
 1 92091 TI005    23 -99
 1 92152 TI005    23 -99
 1 92213 TI005    23 -99
 1 92274 TI005    23 -99
 1 93091 TI005    23 -99
 1 93152 TI005    23 -99
 1 93213 TI005    23 -99
 1 93274 TI005    23 -99
 1 94091 TI005    23 -99
 1 94152 TI005    23 -99
 1 94213 TI005    23 -99
 1 94274 TI005    23 -99
 1 95091 TI005    23 -99
 1 95152 TI005    23 -99
 1 95213 TI005    23 -99
 1 95274 TI005    23 -99
 1 96091 TI005    23 -99
 1 96152 TI005    23 -99
 1 96213 TI005    23 -99
 1 96274 TI005    23 -99
 1 97091 TI005    23 -99
 1 97152 TI005    23 -99
 1 97213 TI005    23 -99
 1 97274 TI005    23 -99
 1 98091 TI005    23 -99
 1 98152 TI005    23 -99
 1 98213 TI005    23 -99
 1 98274 TI005    23 -99
 1 99091 TI005    23 -99
 1 99152 TI005    23 -99
 1 99213 TI005    23 -99
 1 99274 TI005    23 -99

*HARVEST DETAILS
@H HDATE  HSTG  HCOM HSIZE   HPC  HBPC HNAME
 1 99343 GS000   -99   -99   100     0 

*SIMULATION CONTROLS
@N GENERAL     NYERS NREPS START SDATE RSEED SNAME.................... SMODEL
 1 GE              1     1     S 59344  2150 ROTHAMSTED FALLOW
@N OPTIONS     WATER NITRO SYMBI PHOSP POTAS DISES  CHEM  TILL   CO2
 1 OP              Y     Y     Y     N     N     N     N     Y     M
@N METHODS     WTHER INCON LIGHT EVAPO INFIL PHOTO HYDRO NSWIT MESOM MESEV MESOL
 1 ME              M     M     E     R     S     C     R     1     P     S     2
@N MANAGEMENT  PLANT IRRIG FERTI RESID HARVS
 1 MA              R     N     R     R     R
@N OUTPUTS     FNAME OVVEW SUMRY FROPT GROUT CAOUT WAOUT NIOUT MIOUT DIOUT VBOSE CHOUT OPOUT FMOPT
 1 OU              N     Y     Y     1     N     Y     Y     Y     N     N     Y     N     Y     A

@  AUTOMATIC MANAGEMENT
@N PLANTING    PFRST PLAST PH2OL PH2OU PH2OD PSTMX PSTMN
 1 PL          82050 82064    40   100    30    40    10
@N IRRIGATION  IMDEP ITHRL ITHRU IROFF IMETH IRAMT IREFF
 1 IR             30    50   100 GS000 IR001    10     1
@N NITROGEN    NMDEP NMTHR NAMNT NCODE NAOFF
 1 NI             30    50    25 FE001 GS000
@N RESIDUES    RIPCN RTIME RIDEP
 1 RE            100     1    20
@N HARVEST     HFRST HLAST HPCNP HPCNR
 1 HA              0 83057   100     0



