*EXP.DETAILS: MTIS8901TN TANIER MULTIPLE YEAR, ISABELA P.R.

*GENERAL
@PEOPLE
-99
@ADDRESS
-99
@SITE
-99

*TREATMENTS                        -------------FACTOR LEVELS------------
@N R O C TNAME.................... CU FL SA IC MP MI MF MR MC MT ME MH SM
 1 1 1 0 BLANCA CULTIVARS           1  1  0  1  1  0  1  0  0  0  0  0  1
 2 1 1 0 MORADA CULTIVARS           2  1  0  1  1  0  1  0  0  0  0  0  1
 3 1 1 0 KELLY CULTIVARS            3  1  0  1  1  0  1  0  0  0  0  0  1

*CULTIVARS
@C CR INGENO CNAME
 1 TN IB0006 BLANCA
 2 TN IB0007 MORANDA
 3 TN IB0005 KELLY

*FIELDS
@L ID_FIELD WSTA....  FLSA  FLOB  FLDT  FLDD  FLDS  FLST SLTX  SLDP  ID_SOIL    FLNAME
 1 MTIS0001 MTIS8901     0     0 DR000     0     0 00000 -99    137  IBAR910030 -99
@L ...........XCRD ...........YCRD .....ELEV .............AREA .SLEN .FLWR .SLAS FLHST FHDUR
 1             -99             -99       -99               -99   -99   -99   -99   -99   -99

*INITIAL CONDITIONS
@C   PCR ICDAT  ICRT  ICND  ICRN  ICRE  ICWD ICRES ICREN ICREP ICRIP ICRID ICNAME
 1    TN 89185   100   -99     1     1   -99  1000   .89     0     0    20 -99
@C  ICBL  SH2O  SNH4  SNO3
 1     5   .38   8.1  14.9
 1    20   .38   8.1  14.9
 1    35  .422     7  29.3
 1    50  .422   6.2  33.7
 1    65  .421     3    19
 1    80  .421     2     5
 1    99  .425     1     1
 1   118  .415     1     1
 1   137  .415     1     1

*PLANTING DETAILS
@P PDATE EDATE  PPOP  PPOE  PLME  PLDS  PLRS  PLRD  PLDP  PLWT  PAGE  PENV  PLPH  SPRL                        PLNAME
 1 89187   -99   2.4   2.4     S     R    91     0    13   -99   -99   -99   -99     0                        -99

*FERTILIZERS (INORGANIC)
@F FDATE  FMCD  FACD  FDEP  FAMN  FAMP  FAMK  FAMC  FAMO  FOCD FERNAME
 1 89207 FE005   -99    30     1   -99   -99   -99   -99   -99 -99
 1 89207 FE017   -99    30     1   -99   -99   -99   -99   -99 -99
 1 89220 FE017   -99    30     1   -99   -99   -99   -99   -99 -99
 1 89220 FE005   -99    30     1   -99   -99   -99   -99   -99 -99
 1 89237 FE017   -99    30     2   -99   -99   -99   -99   -99 -99
 1 89237 FE005   -99    30     3   -99   -99   -99   -99   -99 -99
 1 89251 FE005   -99    30     3   -99   -99   -99   -99   -99 -99
 1 89251 FE017   -99    30     2   -99   -99   -99   -99   -99 -99
 1 89277 FE017   -99    30     2   -99   -99   -99   -99   -99 -99
 1 89277 FE005   -99    30     3   -99   -99   -99   -99   -99 -99
 1 89279 FE017   -99    30     1   -99   -99   -99   -99   -99 -99
 1 89279 FE005   -99    30     1   -99   -99   -99   -99   -99 -99
 1 89293 FE017   -99    30     2   -99   -99   -99   -99   -99 -99
 1 89293 FE005   -99    30     3   -99   -99   -99   -99   -99 -99
 1 89307 FE005   -99    30     3   -99   -99   -99   -99   -99 -99
 1 89307 FE017   -99    30     2   -99   -99   -99   -99   -99 -99
 1 89313 FE005   -99    30     3   -99   -99   -99   -99   -99 -99
 1 89313 FE017   -99    30     2   -99   -99   -99   -99   -99 -99
 1 89324 FE017   -99    30     2   -99   -99   -99   -99   -99 -99
 1 89324 FE005   -99    30     3   -99   -99   -99   -99   -99 -99
 1 89334 FE017   -99    30     2   -99   -99   -99   -99   -99 -99
 1 89334 FE005   -99    30     3   -99   -99   -99   -99   -99 -99
 1 89342 FE005   -99    30     3   -99   -99   -99   -99   -99 -99
 1 89342 FE017   -99    30     2   -99   -99   -99   -99   -99 -99
 1 89352 FE017   -99    30     2   -99   -99   -99   -99   -99 -99
 1 89352 FE005   -99    30     3   -99   -99   -99   -99   -99 -99
 1 90005 FE017   -99    30     2   -99   -99   -99   -99   -99 -99
 1 90005 FE005   -99    30     3   -99   -99   -99   -99   -99 -99
 1 90016 FE017   -99    30     1   -99   -99   -99   -99   -99 -99
 1 90016 FE005   -99    30     1   -99   -99   -99   -99   -99 -99
 1 90026 FE017   -99    30     2   -99   -99   -99   -99   -99 -99
 1 90026 FE005   -99    30     3   -99   -99   -99   -99   -99 -99
 1 90036 FE005   -99    30     1   -99   -99   -99   -99   -99 -99
 1 90036 FE017   -99    30     1   -99   -99   -99   -99   -99 -99
 1 90051 FE017   -99    30     2   -99   -99   -99   -99   -99 -99
 1 90051 FE005   -99    30     3   -99   -99   -99   -99   -99 -99
 1 90064 FE017   -99    30     2   -99   -99   -99   -99   -99 -99
 1 90064 FE005   -99    30     3   -99   -99   -99   -99   -99 -99
 1 90078 FE017   -99    30     2   -99   -99   -99   -99   -99 -99
 1 90078 FE005   -99    30     3   -99   -99   -99   -99   -99 -99
 1 90087 FE017   -99    30     2   -99   -99   -99   -99   -99 -99
 1 90087 FE005   -99    30     3   -99   -99   -99   -99   -99 -99
 1 90099 FE005   -99    30     3   -99   -99   -99   -99   -99 -99
 1 90099 FE017   -99    30     2   -99   -99   -99   -99   -99 -99
 1 90113 FE017   -99    30     2   -99   -99   -99   -99   -99 -99
 1 90113 FE005   -99    30     3   -99   -99   -99   -99   -99 -99
 1 90127 FE017   -99    30     2   -99   -99   -99   -99   -99 -99
 1 90127 FE005   -99    30     3   -99   -99   -99   -99   -99 -99
 1 90141 FE017   -99    30     2   -99   -99   -99   -99   -99 -99
 1 90141 FE005   -99    30     3   -99   -99   -99   -99   -99 -99
 1 90155 FE017   -99    30     2   -99   -99   -99   -99   -99 -99
 1 90155 FE005   -99    30     3   -99   -99   -99   -99   -99 -99
 1 90163 FE017   -99    30     1   -99   -99   -99   -99   -99 -99
 1 90163 FE005   -99    30     1   -99   -99   -99   -99   -99 -99
 1 90176 FE017   -99    30     2   -99   -99   -99   -99   -99 -99
 1 90176 FE005   -99    30     3   -99   -99   -99   -99   -99 -99
 1 90204 FE017   -99    30     2   -99   -99   -99   -99   -99 -99
 1 90204 FE005   -99    30     3   -99   -99   -99   -99   -99 -99
 1 90210 FE005   -99    30     3   -99   -99   -99   -99   -99 -99
 1 90210 FE017   -99    30     2   -99   -99   -99   -99   -99 -99
 1 90236 FE017   -99    30     4   -99   -99   -99   -99   -99 -99
 1 90236 FE005   -99    30     5   -99   -99   -99   -99   -99 -99
 1 90247 FE017   -99    30     2   -99   -99   -99   -99   -99 -99
 1 90247 FE005   -99    30     3   -99   -99   -99   -99   -99 -99
 1 90260 FE005   -99    30     5   -99   -99   -99   -99   -99 -99
 1 90260 FE017   -99    30     4   -99   -99   -99   -99   -99 -99

*SIMULATION CONTROLS
@N GENERAL     NYERS NREPS START SDATE RSEED SNAME.................... SMODEL
 1 GE              1     1     S 89185  2150 TANIER MULTIPLE YEAR, IS
@N OPTIONS     WATER NITRO SYMBI PHOSP POTAS DISES  CHEM  TILL   CO2
 1 OP              Y     Y     Y     N     N     N     N     N     M
@N METHODS     WTHER INCON LIGHT EVAPO INFIL PHOTO HYDRO NSWIT MESOM MESEV MESOL
 1 ME              M     M     E     R     S     C     R     1     G     S     2
@N MANAGEMENT  PLANT IRRIG FERTI RESID HARVS
 1 MA              R     R     R     R     M
@N OUTPUTS     FNAME OVVEW SUMRY FROPT GROUT CAOUT WAOUT NIOUT MIOUT DIOUT VBOSE CHOUT OPOUT
 1 OU              N     Y     Y     3     Y     N     Y     Y     N     N     Y     N     N

@  AUTOMATIC MANAGEMENT
@N PLANTING    PFRST PLAST PH2OL PH2OU PH2OD PSTMX PSTMN
 1 PL          89155 89200    40   100    30    40    10
@N IRRIGATION  IMDEP ITHRL ITHRU IROFF IMETH IRAMT IREFF
 1 IR             30    50   100 GS000 IR001    10     1
@N NITROGEN    NMDEP NMTHR NAMNT NCODE NAOFF
 1 NI             30    50    25 FE001 GS000
@N RESIDUES    RIPCN RTIME RIDEP
 1 RE            100     1    20
@N HARVEST     HFRST HLAST HPCNP HPCNR
 1 HA              0 89365   100     0



