*MODEL INPUT FILE            B     1     1     3   999     0
*FILES              
MODEL          WHAPS045
FILEX          UFMX8902.WHX C:\DSSAT45\WHEAT\                                                               
FILEA          UFMX8902.WHA C:\DSSAT45\WHEAT\                                                               
FILET          UFMX8902.WHT C:\DSSAT45\WHEAT\                                                               
SPECIES        WHAPS045.SPE                                                                                 
ECOTYPE        WHAPS045.ECO                                                                                 
CULTIVAR       WHAPS045.CUL                                                                                 
PESTS          WHAPS045.PST C:\DSSAT45\PEST\                                                                
SOILS          SOIL.SOL     C:\DSSAT45\SOIL\                                                                
WEATHER        UFMX8901.WTH C:\DSSAT45\Weather\                                                             
OUTPUT         OVERVIEW
*SIMULATION CONTROL 
                   1     1     S 1989345  2150 NWheat Water+N Stress    
                   Y     Y     N     N     N     N     N     Y     M
                   M     M     E     R     S     C     R     1     P     S     2
                   R     R     R     R     M
                   N     Y     Y     1     Y     N     Y     Y     N     N     D     N     Z
!AUTOMATIC MANAGEM  
               1989345 1989350   40.  100.   30.   40.   10.
                 30.   50.  100. GS000 IR001  10.0 1.000
                 30.   50.   25. FE001 GS000
                100.     1   20.
                     0 1990120  100.    0.
*EXP.DETAILS        
  1UFMX8902 WH  Mexi (NWheat migration to DSSAT)                           
*TREATMENTS         
  3 1 0 0 Irrigated + Nitrogen     
*CULTIVARS          
   WH IB0001 YECORA          
*FIELDS             
   UFMX0001 UFMX8901   0.0    0. DR000    0. 100.0 00000 CL     151. UFMX000002
           0.00000         0.00000      0.00               1.0  100.   1.0   0.0   -99   -99
*INITIAL CONDITIONS 
   WH    1989345  1500     0  0.00  0.00   0.0     0  0.00  0.00  100.    0.
      5. 0.211  3.30  2.50
     15. 0.211  3.20  2.40
     25. 0.211  3.00  2.20
     40. 0.211  3.00  2.20
     55. 0.211  2.60  2.00
     70. 0.211  2.20  1.70
     90. 0.211  2.20  1.70
    120. 0.211  2.20  1.70
    150. 0.211  2.20  1.70
*PLANTING DETAILS   
   1989345     -99 300.0 300.0     S     R   16.    0.   4.0  -99.  -99. -99.0 -99.0   0.0
*IRRIGATION         
   1.000   30.   75.  -99. GS000 IR001   0.0
   1990013 IR001  30.0
   1990037 IR001  30.0
   1990097 IR001  30.0
   1990133 IR001  30.0
   1990157 IR001  30.0
*FERTILIZERS        
   1989345 FE005 AP002    5.  150.    0.    0.    0.    0.   -99
   1990040 FE005 AP002    5.   50.    0.    0.    0.    0.   -99
   1990060 FE005 AP002    5.   50.    0.    0.    0.    0.   -99
*RESIDUES           
   1989345 RE003 20000  0.80  0.00  0.00    0.    0.   -99
*CHEMICALS          
*TILLAGE            
*ENVIRONMENT        
*HARVEST            
     90120   -99     G   -99  100.    0.
*SOIL               
 UFMX000002  IBSNAT      CL     151. Generic                                           
 YAQUI VALLE  Mexico      26.600-110.400 Generic                                           
 BN     0.11   6.0  0.50   60.  1.00  1.00 IB001 IB001 IB001 -99  
    5.       0.081 0.211 0.364 0.869 0.590  1.33 1.170   3.0   2.0   0.0  -9.0  7.70-99.00-99.00-99.00
   15.       0.081 0.211 0.364 0.869 0.590  1.33 1.170   3.0   2.0   0.0  -9.0  6.20-99.00-99.00-99.00
   25.       0.095 0.211 0.381 0.657 0.590  1.62 0.680   3.0   2.0   0.0  -9.0  6.20-99.00-99.00-99.00
   40.       0.035 0.211 0.316 0.507 0.590  1.66 0.150   3.0   2.0   0.0  -9.0  6.30-99.00-99.00-99.00
   55.       0.034 0.211 0.312 0.333 0.590  1.68 0.120   3.0   2.0   0.0  -9.0  6.30-99.00-99.00-99.00
   70.       0.034 0.211 0.312 0.333 0.590  1.68 0.120   3.0   2.0   0.0  -9.0  6.00-99.00-99.00-99.00
   90.       0.034 0.211 0.312 0.333 0.590  1.68 0.120   3.0   2.0   0.0  -9.0  6.00-99.00-99.00-99.00
  120.       0.034 0.211 0.312 0.333 0.590  1.68 0.120   3.0   2.0   0.0  -9.0  6.00-99.00-99.00-99.00
  150.       0.034 0.211 0.312 0.333 0.590  1.68 0.120   3.0   2.0   0.0  -9.0  6.00-99.00-99.00-99.00
                    
    5.-99.00 -99.0 -99.0 -99.0 -99.0 -99.0 -99.0 -99.0 -99.0 -99.0-99.00 -99.0 -99.0 -99.0 -99.0 -99.0  -99.
   15.-99.00 -99.0 -99.0 -99.0 -99.0 -99.0 -99.0 -99.0 -99.0 -99.0-99.00 -99.0 -99.0 -99.0 -99.0 -99.0  -99.
   25.-99.00 -99.0 -99.0 -99.0 -99.0 -99.0 -99.0 -99.0 -99.0 -99.0-99.00 -99.0 -99.0 -99.0 -99.0 -99.0  -99.
   40.-99.00 -99.0 -99.0 -99.0 -99.0 -99.0 -99.0 -99.0 -99.0 -99.0-99.00 -99.0 -99.0 -99.0 -99.0 -99.0  -99.
   55.-99.00 -99.0 -99.0 -99.0 -99.0 -99.0 -99.0 -99.0 -99.0 -99.0-99.00 -99.0 -99.0 -99.0 -99.0 -99.0  -99.
   70.-99.00 -99.0 -99.0 -99.0 -99.0 -99.0 -99.0 -99.0 -99.0 -99.0-99.00 -99.0 -99.0 -99.0 -99.0 -99.0  -99.
   90.-99.00 -99.0 -99.0 -99.0 -99.0 -99.0 -99.0 -99.0 -99.0 -99.0-99.00 -99.0 -99.0 -99.0 -99.0 -99.0  -99.
  120.-99.00 -99.0 -99.0 -99.0 -99.0 -99.0 -99.0 -99.0 -99.0 -99.0-99.00 -99.0 -99.0 -99.0 -99.0 -99.0  -99.
  150.-99.00 -99.0 -99.0 -99.0 -99.0 -99.0 -99.0 -99.0 -99.0 -99.0-99.00 -99.0 -99.0 -99.0 -99.0 -99.0  -99.
*CULTIVAR           
IB0001 YECORA           IB0001   1.00  1.20 400.0 660.0 120.0  24.0  1.90  3.00 400.0 300.0  2.50  0.60 0.005 1400.  0.60  0.60  50.0  3.00  1.00  3.00  1.00  1.00  1.00  0.00  0.60 0.040  2.00 0.450  6.75  0.00  6.50  0.00  3.50 0.030 0.250 1.230  2.00  5.00  55.0  4.50 0.250    1.    1.
