*EXP.DETAILS: CO2 x irrigation sensitivity analysis with auto Irr

*GENERAL
@PEOPLE
 Jeff White                           

@NOTES
Prepared for testing pre-release versions of CSM.  Created to 
characterize the CO2 x irrigation (water) response of crops using ficticious 
weather data and soil conditions for a site at 0o latitude 
(to avoid confounding effcts of photoperiod). 

20o mean temperature w 10o range

*TREATMENTS                        -------------FACTOR LEVELS------------
@N R O C TNAME.................... CU FL SA IC MP MI MF MR MC MT ME MH SM
0011 0 0 CO2=  50 ppm; IR =  1      1  1  0  1  1  1  1  0  0  0  1  0  1
0021 0 0 CO2=  50 ppm; IR =  2      1  1  0  1  1  2  1  0  0  0  1  0  1
0031 0 0 CO2=  50 ppm; IR =  3      1  1  0  1  1  3  1  0  0  0  1  0  1
0041 0 0 CO2=  50 ppm; IR =  4      1  1  0  1  1  4  1  0  0  0  1  0  1
0051 0 0 CO2=  50 ppm; IR =  5      1  1  0  1  1  5  1  0  0  0  1  0  1
0061 0 0 CO2=  50 ppm; IR =  6      1  1  0  1  1  6  1  0  0  0  1  0  1
0071 0 0 CO2=  50 ppm; IR =  7      1  1  0  1  1  7  1  0  0  0  1  0  1
0081 0 0 CO2=  50 ppm; IR =  8      1  1  0  1  1  8  1  0  0  0  1  0  1
0091 0 0 CO2=  50 ppm; IR =  9      1  1  0  1  1  9  1  0  0  0  1  0  1
0101 0 0 CO2=  50 ppm; IR = 10      1  1  0  1  1 10  1  0  0  0  1  0  1
0111 0 0 CO2=  50 ppm; IR = 11      1  1  0  1  1 11  1  0  0  0  1  0  1
0121 0 0 CO2=  50 ppm; IR = 12      1  1  0  1  1 12  1  0  0  0  1  0  1
0131 0 0 CO2=  50 ppm; IR = 13      1  1  0  1  1 13  1  0  0  0  1  0  1
0141 0 0 CO2=  50 ppm; IR = 14      1  1  0  1  1 14  1  0  0  0  1  0  1
0151 0 0 CO2=  50 ppm; IR = 15      1  1  0  1  1 15  1  0  0  0  1  0  1
0161 0 0 CO2=  50 ppm; IR = 16      1  1  0  1  1 16  1  0  0  0  1  0  1
0171 0 0 CO2=  50 ppm; IR = 17      1  1  0  1  1 17  1  0  0  0  1  0  1
0181 0 0 CO2=  50 ppm; IR = 18      1  1  0  1  1 18  1  0  0  0  1  0  1
0191 0 0 CO2=  50 ppm; IR = 19      1  1  0  1  1 19  1  0  0  0  1  0  1
0201 0 0 CO2=  50 ppm; IR = 20      1  1  0  1  1 20  1  0  0  0  1  0  1
0211 0 0 CO2= 100 ppm; IR =  1      1  1  0  1  1  1  1  0  0  0  2  0  1
0221 0 0 CO2= 100 ppm; IR =  2      1  1  0  1  1  2  1  0  0  0  2  0  1
0231 0 0 CO2= 100 ppm; IR =  3      1  1  0  1  1  3  1  0  0  0  2  0  1
0241 0 0 CO2= 100 ppm; IR =  4      1  1  0  1  1  4  1  0  0  0  2  0  1
0251 0 0 CO2= 100 ppm; IR =  5      1  1  0  1  1  5  1  0  0  0  2  0  1
0261 0 0 CO2= 100 ppm; IR =  6      1  1  0  1  1  6  1  0  0  0  2  0  1
0271 0 0 CO2= 100 ppm; IR =  7      1  1  0  1  1  7  1  0  0  0  2  0  1
0281 0 0 CO2= 100 ppm; IR =  8      1  1  0  1  1  8  1  0  0  0  2  0  1
0291 0 0 CO2= 100 ppm; IR =  9      1  1  0  1  1  9  1  0  0  0  2  0  1
0301 0 0 CO2= 100 ppm; IR = 10      1  1  0  1  1 10  1  0  0  0  2  0  1
0311 0 0 CO2= 100 ppm; IR = 11      1  1  0  1  1 11  1  0  0  0  2  0  1
0321 0 0 CO2= 100 ppm; IR = 12      1  1  0  1  1 12  1  0  0  0  2  0  1
0331 0 0 CO2= 100 ppm; IR = 13      1  1  0  1  1 13  1  0  0  0  2  0  1
0341 0 0 CO2= 100 ppm; IR = 14      1  1  0  1  1 14  1  0  0  0  2  0  1
0351 0 0 CO2= 100 ppm; IR = 15      1  1  0  1  1 15  1  0  0  0  2  0  1
0361 0 0 CO2= 100 ppm; IR = 16      1  1  0  1  1 16  1  0  0  0  2  0  1
0371 0 0 CO2= 100 ppm; IR = 17      1  1  0  1  1 17  1  0  0  0  2  0  1
0381 0 0 CO2= 100 ppm; IR = 18      1  1  0  1  1 18  1  0  0  0  2  0  1
0391 0 0 CO2= 100 ppm; IR = 19      1  1  0  1  1 19  1  0  0  0  2  0  1
0401 0 0 CO2= 100 ppm; IR = 20      1  1  0  1  1 20  1  0  0  0  2  0  1
0411 0 0 CO2= 200 ppm; IR =  1      1  1  0  1  1  1  1  0  0  0  3  0  1
0421 0 0 CO2= 200 ppm; IR =  2      1  1  0  1  1  2  1  0  0  0  3  0  1
0431 0 0 CO2= 200 ppm; IR =  3      1  1  0  1  1  3  1  0  0  0  3  0  1
0441 0 0 CO2= 200 ppm; IR =  4      1  1  0  1  1  4  1  0  0  0  3  0  1
0451 0 0 CO2= 200 ppm; IR =  5      1  1  0  1  1  5  1  0  0  0  3  0  1
0461 0 0 CO2= 200 ppm; IR =  6      1  1  0  1  1  6  1  0  0  0  3  0  1
0471 0 0 CO2= 200 ppm; IR =  7      1  1  0  1  1  7  1  0  0  0  3  0  1
0481 0 0 CO2= 200 ppm; IR =  8      1  1  0  1  1  8  1  0  0  0  3  0  1
0491 0 0 CO2= 200 ppm; IR =  9      1  1  0  1  1  9  1  0  0  0  3  0  1
0501 0 0 CO2= 200 ppm; IR = 10      1  1  0  1  1 10  1  0  0  0  3  0  1
0511 0 0 CO2= 200 ppm; IR = 11      1  1  0  1  1 11  1  0  0  0  3  0  1
0521 0 0 CO2= 200 ppm; IR = 12      1  1  0  1  1 12  1  0  0  0  3  0  1
0531 0 0 CO2= 200 ppm; IR = 13      1  1  0  1  1 13  1  0  0  0  3  0  1
0541 0 0 CO2= 200 ppm; IR = 14      1  1  0  1  1 14  1  0  0  0  3  0  1
0551 0 0 CO2= 200 ppm; IR = 15      1  1  0  1  1 15  1  0  0  0  3  0  1
0561 0 0 CO2= 200 ppm; IR = 16      1  1  0  1  1 16  1  0  0  0  3  0  1
0571 0 0 CO2= 200 ppm; IR = 17      1  1  0  1  1 17  1  0  0  0  3  0  1
0581 0 0 CO2= 200 ppm; IR = 18      1  1  0  1  1 18  1  0  0  0  3  0  1
0591 0 0 CO2= 200 ppm; IR = 19      1  1  0  1  1 19  1  0  0  0  3  0  1
0601 0 0 CO2= 200 ppm; IR = 20      1  1  0  1  1 20  1  0  0  0  3  0  1
0611 0 0 CO2= 300 ppm; IR =  1      1  1  0  1  1  1  1  0  0  0  4  0  1
0621 0 0 CO2= 300 ppm; IR =  2      1  1  0  1  1  2  1  0  0  0  4  0  1
0631 0 0 CO2= 300 ppm; IR =  3      1  1  0  1  1  3  1  0  0  0  4  0  1
0641 0 0 CO2= 300 ppm; IR =  4      1  1  0  1  1  4  1  0  0  0  4  0  1
0651 0 0 CO2= 300 ppm; IR =  5      1  1  0  1  1  5  1  0  0  0  4  0  1
0661 0 0 CO2= 300 ppm; IR =  6      1  1  0  1  1  6  1  0  0  0  4  0  1
0671 0 0 CO2= 300 ppm; IR =  7      1  1  0  1  1  7  1  0  0  0  4  0  1
0681 0 0 CO2= 300 ppm; IR =  8      1  1  0  1  1  8  1  0  0  0  4  0  1
0691 0 0 CO2= 300 ppm; IR =  9      1  1  0  1  1  9  1  0  0  0  4  0  1
0701 0 0 CO2= 300 ppm; IR = 10      1  1  0  1  1 10  1  0  0  0  4  0  1
0711 0 0 CO2= 300 ppm; IR = 11      1  1  0  1  1 11  1  0  0  0  4  0  1
0721 0 0 CO2= 300 ppm; IR = 12      1  1  0  1  1 12  1  0  0  0  4  0  1
0731 0 0 CO2= 300 ppm; IR = 13      1  1  0  1  1 13  1  0  0  0  4  0  1
0741 0 0 CO2= 300 ppm; IR = 14      1  1  0  1  1 14  1  0  0  0  4  0  1
0751 0 0 CO2= 300 ppm; IR = 15      1  1  0  1  1 15  1  0  0  0  4  0  1
0761 0 0 CO2= 300 ppm; IR = 16      1  1  0  1  1 16  1  0  0  0  4  0  1
0771 0 0 CO2= 300 ppm; IR = 17      1  1  0  1  1 17  1  0  0  0  4  0  1
0781 0 0 CO2= 300 ppm; IR = 18      1  1  0  1  1 18  1  0  0  0  4  0  1
0791 0 0 CO2= 300 ppm; IR = 19      1  1  0  1  1 19  1  0  0  0  4  0  1
0801 0 0 CO2= 300 ppm; IR = 20      1  1  0  1  1 20  1  0  0  0  4  0  1
0811 0 0 CO2= 400 ppm; IR =  1      1  1  0  1  1  1  1  0  0  0  5  0  1
0821 0 0 CO2= 400 ppm; IR =  2      1  1  0  1  1  2  1  0  0  0  5  0  1
0831 0 0 CO2= 400 ppm; IR =  3      1  1  0  1  1  3  1  0  0  0  5  0  1
0841 0 0 CO2= 400 ppm; IR =  4      1  1  0  1  1  4  1  0  0  0  5  0  1
0851 0 0 CO2= 400 ppm; IR =  5      1  1  0  1  1  5  1  0  0  0  5  0  1
0861 0 0 CO2= 400 ppm; IR =  6      1  1  0  1  1  6  1  0  0  0  5  0  1
0871 0 0 CO2= 400 ppm; IR =  7      1  1  0  1  1  7  1  0  0  0  5  0  1
0881 0 0 CO2= 400 ppm; IR =  8      1  1  0  1  1  8  1  0  0  0  5  0  1
0891 0 0 CO2= 400 ppm; IR =  9      1  1  0  1  1  9  1  0  0  0  5  0  1
0901 0 0 CO2= 400 ppm; IR = 10      1  1  0  1  1 10  1  0  0  0  5  0  1
0911 0 0 CO2= 400 ppm; IR = 11      1  1  0  1  1 11  1  0  0  0  5  0  1
0921 0 0 CO2= 400 ppm; IR = 12      1  1  0  1  1 12  1  0  0  0  5  0  1
0931 0 0 CO2= 400 ppm; IR = 13      1  1  0  1  1 13  1  0  0  0  5  0  1
0941 0 0 CO2= 400 ppm; IR = 14      1  1  0  1  1 14  1  0  0  0  5  0  1
0951 0 0 CO2= 400 ppm; IR = 15      1  1  0  1  1 15  1  0  0  0  5  0  1
0961 0 0 CO2= 400 ppm; IR = 16      1  1  0  1  1 16  1  0  0  0  5  0  1
0971 0 0 CO2= 400 ppm; IR = 17      1  1  0  1  1 17  1  0  0  0  5  0  1
0981 0 0 CO2= 400 ppm; IR = 18      1  1  0  1  1 18  1  0  0  0  5  0  1
0991 0 0 CO2= 400 ppm; IR = 19      1  1  0  1  1 19  1  0  0  0  5  0  1
1001 0 0 CO2= 500 ppm; IR = 20      1  1  0  1  1 20  1  0  0  0  5  0  1
1011 0 0 CO2= 500 ppm; IR =  1      1  1  0  1  1  1  1  0  0  0  6  0  1
1021 0 0 CO2= 500 ppm; IR =  2      1  1  0  1  1  2  1  0  0  0  6  0  1
1031 0 0 CO2= 500 ppm; IR =  3      1  1  0  1  1  3  1  0  0  0  6  0  1
1041 0 0 CO2= 500 ppm; IR =  4      1  1  0  1  1  4  1  0  0  0  6  0  1
1051 0 0 CO2= 500 ppm; IR =  5      1  1  0  1  1  5  1  0  0  0  6  0  1
1061 0 0 CO2= 500 ppm; IR =  6      1  1  0  1  1  6  1  0  0  0  6  0  1
1071 0 0 CO2= 500 ppm; IR =  7      1  1  0  1  1  7  1  0  0  0  6  0  1
1081 0 0 CO2= 500 ppm; IR =  8      1  1  0  1  1  8  1  0  0  0  6  0  1
1091 0 0 CO2= 500 ppm; IR =  9      1  1  0  1  1  9  1  0  0  0  6  0  1
1101 0 0 CO2= 500 ppm; IR = 10      1  1  0  1  1 10  1  0  0  0  6  0  1
1111 0 0 CO2= 500 ppm; IR = 11      1  1  0  1  1 11  1  0  0  0  6  0  1
1121 0 0 CO2= 500 ppm; IR = 12      1  1  0  1  1 12  1  0  0  0  6  0  1
1131 0 0 CO2= 500 ppm; IR = 13      1  1  0  1  1 13  1  0  0  0  6  0  1
1141 0 0 CO2= 500 ppm; IR = 14      1  1  0  1  1 14  1  0  0  0  6  0  1
1151 0 0 CO2= 500 ppm; IR = 15      1  1  0  1  1 15  1  0  0  0  6  0  1
1161 0 0 CO2= 500 ppm; IR = 16      1  1  0  1  1 16  1  0  0  0  6  0  1
1171 0 0 CO2= 500 ppm; IR = 17      1  1  0  1  1 17  1  0  0  0  6  0  1
1181 0 0 CO2= 500 ppm; IR = 18      1  1  0  1  1 18  1  0  0  0  6  0  1
1191 0 0 CO2= 500 ppm; IR = 19      1  1  0  1  1 19  1  0  0  0  6  0  1
1201 0 0 CO2= 600 ppm; IR = 20      1  1  0  1  1 20  1  0  0  0  6  0  1
1211 0 0 CO2= 600 ppm; IR =  1      1  1  0  1  1  1  1  0  0  0  7  0  1
1221 0 0 CO2= 600 ppm; IR =  2      1  1  0  1  1  2  1  0  0  0  7  0  1
1231 0 0 CO2= 600 ppm; IR =  3      1  1  0  1  1  3  1  0  0  0  7  0  1
1241 0 0 CO2= 600 ppm; IR =  4      1  1  0  1  1  4  1  0  0  0  7  0  1
1251 0 0 CO2= 600 ppm; IR =  5      1  1  0  1  1  5  1  0  0  0  7  0  1
1261 0 0 CO2= 600 ppm; IR =  6      1  1  0  1  1  6  1  0  0  0  7  0  1
1271 0 0 CO2= 600 ppm; IR =  7      1  1  0  1  1  7  1  0  0  0  7  0  1
1281 0 0 CO2= 600 ppm; IR =  8      1  1  0  1  1  8  1  0  0  0  7  0  1
1291 0 0 CO2= 600 ppm; IR =  9      1  1  0  1  1  9  1  0  0  0  7  0  1
1301 0 0 CO2= 600 ppm; IR = 10      1  1  0  1  1 10  1  0  0  0  7  0  1
1311 0 0 CO2= 600 ppm; IR = 11      1  1  0  1  1 11  1  0  0  0  7  0  1
1321 0 0 CO2= 600 ppm; IR = 12      1  1  0  1  1 12  1  0  0  0  7  0  1
1331 0 0 CO2= 600 ppm; IR = 13      1  1  0  1  1 13  1  0  0  0  7  0  1
1341 0 0 CO2= 600 ppm; IR = 14      1  1  0  1  1 14  1  0  0  0  7  0  1
1351 0 0 CO2= 600 ppm; IR = 15      1  1  0  1  1 15  1  0  0  0  7  0  1
1361 0 0 CO2= 600 ppm; IR = 16      1  1  0  1  1 16  1  0  0  0  7  0  1
1371 0 0 CO2= 600 ppm; IR = 17      1  1  0  1  1 17  1  0  0  0  7  0  1
1381 0 0 CO2= 600 ppm; IR = 18      1  1  0  1  1 18  1  0  0  0  7  0  1
1391 0 0 CO2= 600 ppm; IR = 19      1  1  0  1  1 19  1  0  0  0  7  0  1
1401 0 0 CO2= 700 ppm; IR = 20      1  1  0  1  1 20  1  0  0  0  7  0  1
1411 0 0 CO2= 700 ppm; IR =  1      1  1  0  1  1  1  1  0  0  0  8  0  1
1421 0 0 CO2= 700 ppm; IR =  2      1  1  0  1  1  2  1  0  0  0  8  0  1
1431 0 0 CO2= 700 ppm; IR =  3      1  1  0  1  1  3  1  0  0  0  8  0  1
1441 0 0 CO2= 700 ppm; IR =  4      1  1  0  1  1  4  1  0  0  0  8  0  1
1451 0 0 CO2= 700 ppm; IR =  5      1  1  0  1  1  5  1  0  0  0  8  0  1
1461 0 0 CO2= 700 ppm; IR =  6      1  1  0  1  1  6  1  0  0  0  8  0  1
1471 0 0 CO2= 700 ppm; IR =  7      1  1  0  1  1  7  1  0  0  0  8  0  1
1481 0 0 CO2= 700 ppm; IR =  8      1  1  0  1  1  8  1  0  0  0  8  0  1
1491 0 0 CO2= 700 ppm; IR =  9      1  1  0  1  1  9  1  0  0  0  8  0  1
1501 0 0 CO2= 700 ppm; IR = 10      1  1  0  1  1 10  1  0  0  0  8  0  1
1511 0 0 CO2= 700 ppm; IR = 11      1  1  0  1  1 11  1  0  0  0  8  0  1
1521 0 0 CO2= 700 ppm; IR = 12      1  1  0  1  1 12  1  0  0  0  8  0  1
1531 0 0 CO2= 700 ppm; IR = 13      1  1  0  1  1 13  1  0  0  0  8  0  1
1541 0 0 CO2= 700 ppm; IR = 14      1  1  0  1  1 14  1  0  0  0  8  0  1
1551 0 0 CO2= 700 ppm; IR = 15      1  1  0  1  1 15  1  0  0  0  8  0  1
1561 0 0 CO2= 700 ppm; IR = 16      1  1  0  1  1 16  1  0  0  0  8  0  1
1571 0 0 CO2= 700 ppm; IR = 17      1  1  0  1  1 17  1  0  0  0  8  0  1
1581 0 0 CO2= 700 ppm; IR = 18      1  1  0  1  1 18  1  0  0  0  8  0  1
1591 0 0 CO2= 700 ppm; IR = 19      1  1  0  1  1 19  1  0  0  0  8  0  1
1601 0 0 CO2= 800 ppm; IR = 20      1  1  0  1  1 20  1  0  0  0  8  0  1
1611 0 0 CO2= 800 ppm; IR =  1      1  1  0  1  1  1  1  0  0  0  9  0  1
1621 0 0 CO2= 800 ppm; IR =  2      1  1  0  1  1  2  1  0  0  0  9  0  1
1631 0 0 CO2= 800 ppm; IR =  3      1  1  0  1  1  3  1  0  0  0  9  0  1
1641 0 0 CO2= 800 ppm; IR =  4      1  1  0  1  1  4  1  0  0  0  9  0  1
1651 0 0 CO2= 800 ppm; IR =  5      1  1  0  1  1  5  1  0  0  0  9  0  1
1661 0 0 CO2= 800 ppm; IR =  6      1  1  0  1  1  6  1  0  0  0  9  0  1
1671 0 0 CO2= 800 ppm; IR =  7      1  1  0  1  1  7  1  0  0  0  9  0  1
1681 0 0 CO2= 800 ppm; IR =  8      1  1  0  1  1  8  1  0  0  0  9  0  1
1691 0 0 CO2= 800 ppm; IR =  9      1  1  0  1  1  9  1  0  0  0  9  0  1
1701 0 0 CO2= 800 ppm; IR = 10      1  1  0  1  1 10  1  0  0  0  9  0  1
1711 0 0 CO2= 800 ppm; IR = 11      1  1  0  1  1 11  1  0  0  0  9  0  1
1721 0 0 CO2= 800 ppm; IR = 12      1  1  0  1  1 12  1  0  0  0  9  0  1
1731 0 0 CO2= 800 ppm; IR = 13      1  1  0  1  1 13  1  0  0  0  9  0  1
1741 0 0 CO2= 800 ppm; IR = 14      1  1  0  1  1 14  1  0  0  0  9  0  1
1751 0 0 CO2= 800 ppm; IR = 15      1  1  0  1  1 15  1  0  0  0  9  0  1
1761 0 0 CO2= 800 ppm; IR = 16      1  1  0  1  1 16  1  0  0  0  9  0  1
1771 0 0 CO2= 800 ppm; IR = 17      1  1  0  1  1 17  1  0  0  0  9  0  1
1781 0 0 CO2= 800 ppm; IR = 18      1  1  0  1  1 18  1  0  0  0  9  0  1
1791 0 0 CO2= 800 ppm; IR = 19      1  1  0  1  1 19  1  0  0  0  9  0  1
1801 0 0 CO2= 800 ppm; IR = 20      1  1  0  1  1 20  1  0  0  0  9  0  1
1811 0 0 CO2= 900 ppm; IR =  1      1  1  0  1  1  1  1  0  0  0 10  0  1
1821 0 0 CO2= 900 ppm; IR =  2      1  1  0  1  1  2  1  0  0  0 10  0  1
1831 0 0 CO2= 900 ppm; IR =  3      1  1  0  1  1  3  1  0  0  0 10  0  1
1841 0 0 CO2= 900 ppm; IR =  4      1  1  0  1  1  4  1  0  0  0 10  0  1
1851 0 0 CO2= 900 ppm; IR =  5      1  1  0  1  1  5  1  0  0  0 10  0  1
1861 0 0 CO2= 900 ppm; IR =  6      1  1  0  1  1  6  1  0  0  0 10  0  1
1871 0 0 CO2= 900 ppm; IR =  7      1  1  0  1  1  7  1  0  0  0 10  0  1
1881 0 0 CO2= 900 ppm; IR =  8      1  1  0  1  1  8  1  0  0  0 10  0  1
1891 0 0 CO2= 900 ppm; IR =  9      1  1  0  1  1  9  1  0  0  0 10  0  1
1901 0 0 CO2= 900 ppm; IR = 10      1  1  0  1  1 10  1  0  0  0 10  0  1
1911 0 0 CO2= 900 ppm; IR = 11      1  1  0  1  1 11  1  0  0  0 10  0  1
1921 0 0 CO2= 900 ppm; IR = 12      1  1  0  1  1 12  1  0  0  0 10  0  1
1931 0 0 CO2= 900 ppm; IR = 13      1  1  0  1  1 13  1  0  0  0 10  0  1
1941 0 0 CO2= 900 ppm; IR = 14      1  1  0  1  1 14  1  0  0  0 10  0  1
1951 0 0 CO2= 900 ppm; IR = 15      1  1  0  1  1 15  1  0  0  0 10  0  1
1961 0 0 CO2= 900 ppm; IR = 16      1  1  0  1  1 16  1  0  0  0 10  0  1
1971 0 0 CO2= 900 ppm; IR = 17      1  1  0  1  1 17  1  0  0  0 10  0  1
1981 0 0 CO2= 900 ppm; IR = 18      1  1  0  1  1 18  1  0  0  0 10  0  1
1991 0 0 CO2= 900 ppm; IR = 19      1  1  0  1  1 19  1  0  0  0 10  0  1
2001 0 0 CO2= 900 ppm; IR = 20      1  1  0  1  1 20  1  0  0  0 10  0  1
                                   
*CULTIVARS
@C CR INGENO CNAME
 1 MZ IB0071 PIO 31G98

*FIELDS
@L ID_FIELD WSTA....  FLSA  FLOB  FLDT  FLDD  FLDS  FLST SLTX  SLDP  ID_SOIL    FLNAME
 1 IB000001 AZMC8901   -99     0 DR000     0     0 00000 -99    130  IB00000005 -99
@L ...........XCRD ...........YCRD .....ELEV .............AREA .SLEN .FLWR .SLAS FLHST FHDUR
 1               0               0         0                 0     0     0     0   -99   -99

*INITIAL CONDITIONS
@C   PCR ICDAT  ICRT  ICND  ICRN  ICRE  ICWD ICRES ICREN ICREP ICRIP ICRID ICNAME
 1    SG 89030     0     0     1     1   -99     0   1.6     0   100    10 -99
@C  ICBL  SH2O  SNH4  SNO3  SAOC
 1     5  .250    .0   0.5   0.1
 1    20  .200    .0   0.5   0.0
 1    30  .150    .0   0.4   0.0
 1    40  .100    .0   0.4   0.0
 1    50  .100    .0   0.4   0.0
 1    70  .050    .0   0.2   0.0
 1    90  .050    .0   0.2   0.0
 1   120  .050    .0   0.2   0.0
 1   150  .050    .0   0.2   0.0

*PLANTING DETAILS
! For maize used 15 pl/60 cm row spacing vs 30/30 for soybean
@P PDATE EDATE  PPOP  PPOE  PLME  PLDS  PLRS  PLRD  PLDP  PLWT  PAGE  PENV  PLPH  SPRL                        PLNAME
 1 89030   -99    15    15     S     R    60     0     5   -99   -99   -99   -99     0                        -99

*IRRIGATION AND WATER MANAGEMENT
@I  EFIR  IDEP  ITHR  IEPT  IOFF  IAME  IAMT IRNAME
 1     1   -99   -99   -99   -99   -99   -99 -99
@I IDATE  IROP IRVAL
 1 89030 IR001     2
 1 89035 IR001     2
 1 89040 IR001     2
 1 89045 IR001     2
 1 89050 IR001     2
 1 89055 IR001     2
 1 89060 IR001     2
 1 89065 IR001     2
 1 89070 IR001     2
 1 89075 IR001     2
 1 89080 IR001     2
 1 89085 IR001     2
 1 89090 IR001     2
 1 89095 IR001     2
 1 89100 IR001     2
 1 89105 IR001     2
 1 89110 IR001     2
 1 89115 IR001     2
 1 89120 IR001     2
 1 89125 IR001     2
 1 89130 IR001     2
 1 89135 IR001     2
 1 89140 IR001     2
 1 89145 IR001     2
 1 89150 IR001     2
 1 89155 IR001     2
 1 89160 IR001     2
 1 89165 IR001     2
 1 89170 IR001     2
 1 89175 IR001     2
 1 89180 IR001     2
 1 89185 IR001     2
 1 89190 IR001     2
 1 89195 IR001     2
 1 89200 IR001     2
 1 89205 IR001     2
 1 89210 IR001     2
 1 89215 IR001     2
 1 89220 IR001     2
 1 89225 IR001     2
 1 89230 IR001     2
 1 89235 IR001     2
 1 89240 IR001     2
 1 89245 IR001     2
 1 89250 IR001     2
 1 89255 IR001     2
 1 89260 IR001     2
 1 89265 IR001     2
 1 89270 IR001     2
 1 89275 IR001     2
 1 89280 IR001     2
 1 89285 IR001     2
 1 89290 IR001     2
 1 89295 IR001     2
 1 89300 IR001     2
 1 89305 IR001     2
 1 89310 IR001     2
 1 89315 IR001     2
 1 89320 IR001     2
 1 89325 IR001     2
 1 89330 IR001     2
 1 89335 IR001     2
 1 89340 IR001     2
 1 89345 IR001     2
 1 89350 IR001     2
 1 89355 IR001     2
 1 89360 IR001     2
 1 89365 IR001     2

@I  EFIR  IDEP  ITHR  IEPT  IOFF  IAME  IAMT IRNAME
 2     1   -99   -99   -99   -99   -99   -99 -99
@I IDATE  IROP IRVAL
 2 89030 IR001     4
 2 89035 IR001     4
 2 89040 IR001     4
 2 89045 IR001     4
 2 89050 IR001     4
 2 89055 IR001     4
 2 89060 IR001     4
 2 89065 IR001     4
 2 89070 IR001     4
 2 89075 IR001     4
 2 89080 IR001     4
 2 89085 IR001     4
 2 89090 IR001     4
 2 89095 IR001     4
 2 89100 IR001     4
 2 89105 IR001     4
 2 89110 IR001     4
 2 89115 IR001     4
 2 89120 IR001     4
 2 89125 IR001     4
 2 89130 IR001     4
 2 89135 IR001     4
 2 89140 IR001     4
 2 89145 IR001     4
 2 89150 IR001     4
 2 89155 IR001     4
 2 89160 IR001     4
 2 89165 IR001     4
 2 89170 IR001     4
 2 89175 IR001     4
 2 89180 IR001     4
 2 89185 IR001     4
 2 89190 IR001     4
 2 89195 IR001     4
 2 89200 IR001     4
 2 89205 IR001     4
 2 89210 IR001     4
 2 89215 IR001     4
 2 89220 IR001     4
 2 89225 IR001     4
 2 89230 IR001     4
 2 89235 IR001     4
 2 89240 IR001     4
 2 89245 IR001     4
 2 89250 IR001     4
 2 89255 IR001     4
 2 89260 IR001     4
 2 89265 IR001     4
 2 89270 IR001     4
 2 89275 IR001     4
 2 89280 IR001     4
 2 89285 IR001     4
 2 89290 IR001     4
 2 89295 IR001     4
 2 89300 IR001     4
 2 89305 IR001     4
 2 89310 IR001     4
 2 89315 IR001     4
 2 89320 IR001     4
 2 89325 IR001     4
 2 89330 IR001     4
 2 89335 IR001     4
 2 89340 IR001     4
 2 89345 IR001     4
 2 89350 IR001     4
 2 89355 IR001     4
 2 89360 IR001     4
 2 89365 IR001     4

@I  EFIR  IDEP  ITHR  IEPT  IOFF  IAME  IAMT IRNAME
 3     1   -99   -99   -99   -99   -99   -99 -99
@I IDATE  IROP IRVAL
 3 89030 IR001     6
 3 89035 IR001     6
 3 89040 IR001     6
 3 89045 IR001     6
 3 89050 IR001     6
 3 89055 IR001     6
 3 89060 IR001     6
 3 89065 IR001     6
 3 89070 IR001     6
 3 89075 IR001     6
 3 89080 IR001     6
 3 89085 IR001     6
 3 89090 IR001     6
 3 89095 IR001     6
 3 89100 IR001     6
 3 89105 IR001     6
 3 89110 IR001     6
 3 89115 IR001     6
 3 89120 IR001     6
 3 89125 IR001     6
 3 89130 IR001     6
 3 89135 IR001     6
 3 89140 IR001     6
 3 89145 IR001     6
 3 89150 IR001     6
 3 89155 IR001     6
 3 89160 IR001     6
 3 89165 IR001     6
 3 89170 IR001     6
 3 89175 IR001     6
 3 89180 IR001     6
 3 89185 IR001     6
 3 89190 IR001     6
 3 89195 IR001     6
 3 89200 IR001     6
 3 89205 IR001     6
 3 89210 IR001     6
 3 89215 IR001     6
 3 89220 IR001     6
 3 89225 IR001     6
 3 89230 IR001     6
 3 89235 IR001     6
 3 89240 IR001     6
 3 89245 IR001     6
 3 89250 IR001     6
 3 89255 IR001     6
 3 89260 IR001     6
 3 89265 IR001     6
 3 89270 IR001     6
 3 89275 IR001     6
 3 89280 IR001     6
 3 89285 IR001     6
 3 89290 IR001     6
 3 89295 IR001     6
 3 89300 IR001     6
 3 89305 IR001     6
 3 89310 IR001     6
 3 89315 IR001     6
 3 89320 IR001     6
 3 89325 IR001     6
 3 89330 IR001     6
 3 89335 IR001     6
 3 89340 IR001     6
 3 89345 IR001     6
 3 89350 IR001     6
 3 89355 IR001     6
 3 89360 IR001     6
 3 89365 IR001     6

@I  EFIR  IDEP  ITHR  IEPT  IOFF  IAME  IAMT IRNAME
 4     1   -99   -99   -99   -99   -99   -99 -99
@I IDATE  IROP IRVAL
 4 89030 IR001     8
 4 89035 IR001     8
 4 89040 IR001     8
 4 89045 IR001     8
 4 89050 IR001     8
 4 89055 IR001     8
 4 89060 IR001     8
 4 89065 IR001     8
 4 89070 IR001     8
 4 89075 IR001     8
 4 89080 IR001     8
 4 89085 IR001     8
 4 89090 IR001     8
 4 89095 IR001     8
 4 89100 IR001     8
 4 89105 IR001     8
 4 89110 IR001     8
 4 89115 IR001     8
 4 89120 IR001     8
 4 89125 IR001     8
 4 89130 IR001     8
 4 89135 IR001     8
 4 89140 IR001     8
 4 89145 IR001     8
 4 89150 IR001     8
 4 89155 IR001     8
 4 89160 IR001     8
 4 89165 IR001     8
 4 89170 IR001     8
 4 89175 IR001     8
 4 89180 IR001     8
 4 89185 IR001     8
 4 89190 IR001     8
 4 89195 IR001     8
 4 89200 IR001     8
 4 89205 IR001     8
 4 89210 IR001     8
 4 89215 IR001     8
 4 89220 IR001     8
 4 89225 IR001     8
 4 89230 IR001     8
 4 89235 IR001     8
 4 89240 IR001     8
 4 89245 IR001     8
 4 89250 IR001     8
 4 89255 IR001     8
 4 89260 IR001     8
 4 89265 IR001     8
 4 89270 IR001     8
 4 89275 IR001     8
 4 89280 IR001     8
 4 89285 IR001     8
 4 89290 IR001     8
 4 89295 IR001     8
 4 89300 IR001     8
 4 89305 IR001     8
 4 89310 IR001     8
 4 89315 IR001     8
 4 89320 IR001     8
 4 89325 IR001     8
 4 89330 IR001     8
 4 89335 IR001     8
 4 89340 IR001     8
 4 89345 IR001     8
 4 89350 IR001     8
 4 89355 IR001     8
 4 89360 IR001     8
 4 89365 IR001     8

@I  EFIR  IDEP  ITHR  IEPT  IOFF  IAME  IAMT IRNAME
 5     1   -99   -99   -99   -99   -99   -99 -99
@I IDATE  IROP IRVAL
 5 89030 IR001    10
 5 89035 IR001    10
 5 89040 IR001    10
 5 89045 IR001    10
 5 89050 IR001    10
 5 89055 IR001    10
 5 89060 IR001    10
 5 89065 IR001    10
 5 89070 IR001    10
 5 89075 IR001    10
 5 89080 IR001    10
 5 89085 IR001    10
 5 89090 IR001    10
 5 89095 IR001    10
 5 89100 IR001    10
 5 89105 IR001    10
 5 89110 IR001    10
 5 89115 IR001    10
 5 89120 IR001    10
 5 89125 IR001    10
 5 89130 IR001    10
 5 89135 IR001    10
 5 89140 IR001    10
 5 89145 IR001    10
 5 89150 IR001    10
 5 89155 IR001    10
 5 89160 IR001    10
 5 89165 IR001    10
 5 89170 IR001    10
 5 89175 IR001    10
 5 89180 IR001    10
 5 89185 IR001    10
 5 89190 IR001    10
 5 89195 IR001    10
 5 89200 IR001    10
 5 89205 IR001    10
 5 89210 IR001    10
 5 89215 IR001    10
 5 89220 IR001    10
 5 89225 IR001    10
 5 89230 IR001    10
 5 89235 IR001    10
 5 89240 IR001    10
 5 89245 IR001    10
 5 89250 IR001    10
 5 89255 IR001    10
 5 89260 IR001    10
 5 89265 IR001    10
 5 89270 IR001    10
 5 89275 IR001    10
 5 89280 IR001    10
 5 89285 IR001    10
 5 89290 IR001    10
 5 89295 IR001    10
 5 89300 IR001    10
 5 89305 IR001    10
 5 89310 IR001    10
 5 89315 IR001    10
 5 89320 IR001    10
 5 89325 IR001    10
 5 89330 IR001    10
 5 89335 IR001    10
 5 89340 IR001    10
 5 89345 IR001    10
 5 89350 IR001    10
 5 89355 IR001    10
 5 89360 IR001    10
 5 89365 IR001    10

@I  EFIR  IDEP  ITHR  IEPT  IOFF  IAME  IAMT IRNAME
 6     1   -99   -99   -99   -99   -99   -99 -99
@I IDATE  IROP IRVAL
 6 89030 IR001    12
 6 89035 IR001    12
 6 89040 IR001    12
 6 89045 IR001    12
 6 89050 IR001    12
 6 89055 IR001    12
 6 89060 IR001    12
 6 89065 IR001    12
 6 89070 IR001    12
 6 89075 IR001    12
 6 89080 IR001    12
 6 89085 IR001    12
 6 89090 IR001    12
 6 89095 IR001    12
 6 89100 IR001    12
 6 89105 IR001    12
 6 89110 IR001    12
 6 89115 IR001    12
 6 89120 IR001    12
 6 89125 IR001    12
 6 89130 IR001    12
 6 89135 IR001    12
 6 89140 IR001    12
 6 89145 IR001    12
 6 89150 IR001    12
 6 89155 IR001    12
 6 89160 IR001    12
 6 89165 IR001    12
 6 89170 IR001    12
 6 89175 IR001    12
 6 89180 IR001    12
 6 89185 IR001    12
 6 89190 IR001    12
 6 89195 IR001    12
 6 89200 IR001    12
 6 89205 IR001    12
 6 89210 IR001    12
 6 89215 IR001    12
 6 89220 IR001    12
 6 89225 IR001    12
 6 89230 IR001    12
 6 89235 IR001    12
 6 89240 IR001    12
 6 89245 IR001    12
 6 89250 IR001    12
 6 89255 IR001    12
 6 89260 IR001    12
 6 89265 IR001    12
 6 89270 IR001    12
 6 89275 IR001    12
 6 89280 IR001    12
 6 89285 IR001    12
 6 89290 IR001    12
 6 89295 IR001    12
 6 89300 IR001    12
 6 89305 IR001    12
 6 89310 IR001    12
 6 89315 IR001    12
 6 89320 IR001    12
 6 89325 IR001    12
 6 89330 IR001    12
 6 89335 IR001    12
 6 89340 IR001    12
 6 89345 IR001    12
 6 89350 IR001    12
 6 89355 IR001    12
 6 89360 IR001    12
 6 89365 IR001    12

@I  EFIR  IDEP  ITHR  IEPT  IOFF  IAME  IAMT IRNAME
 7     1   -99   -99   -99   -99   -99   -99 -99
@I IDATE  IROP IRVAL
 7 89030 IR001    14
 7 89035 IR001    14
 7 89040 IR001    14
 7 89045 IR001    14
 7 89050 IR001    14
 7 89055 IR001    14
 7 89060 IR001    14
 7 89065 IR001    14
 7 89070 IR001    14
 7 89075 IR001    14
 7 89080 IR001    14
 7 89085 IR001    14
 7 89090 IR001    14
 7 89095 IR001    14
 7 89100 IR001    14
 7 89105 IR001    14
 7 89110 IR001    14
 7 89115 IR001    14
 7 89120 IR001    14
 7 89125 IR001    14
 7 89130 IR001    14
 7 89135 IR001    14
 7 89140 IR001    14
 7 89145 IR001    14
 7 89150 IR001    14
 7 89155 IR001    14
 7 89160 IR001    14
 7 89165 IR001    14
 7 89170 IR001    14
 7 89175 IR001    14
 7 89180 IR001    14
 7 89185 IR001    14
 7 89190 IR001    14
 7 89195 IR001    14
 7 89200 IR001    14
 7 89205 IR001    14
 7 89210 IR001    14
 7 89215 IR001    14
 7 89220 IR001    14
 7 89225 IR001    14
 7 89230 IR001    14
 7 89235 IR001    14
 7 89240 IR001    14
 7 89245 IR001    14
 7 89250 IR001    14
 7 89255 IR001    14
 7 89260 IR001    14
 7 89265 IR001    14
 7 89270 IR001    14
 7 89275 IR001    14
 7 89280 IR001    14
 7 89285 IR001    14
 7 89290 IR001    14
 7 89295 IR001    14
 7 89300 IR001    14
 7 89305 IR001    14
 7 89310 IR001    14
 7 89315 IR001    14
 7 89320 IR001    14
 7 89325 IR001    14
 7 89330 IR001    14
 7 89335 IR001    14
 7 89340 IR001    14
 7 89345 IR001    14
 7 89350 IR001    14
 7 89355 IR001    14
 7 89360 IR001    14
 7 89365 IR001    14

@I  EFIR  IDEP  ITHR  IEPT  IOFF  IAME  IAMT IRNAME
 8     1   -99   -99   -99   -99   -99   -99 -99
@I IDATE  IROP IRVAL
 8 89030 IR001    16
 8 89035 IR001    16
 8 89040 IR001    16
 8 89045 IR001    16
 8 89050 IR001    16
 8 89055 IR001    16
 8 89060 IR001    16
 8 89065 IR001    16
 8 89070 IR001    16
 8 89075 IR001    16
 8 89080 IR001    16
 8 89085 IR001    16
 8 89090 IR001    16
 8 89095 IR001    16
 8 89100 IR001    16
 8 89105 IR001    16
 8 89110 IR001    16
 8 89115 IR001    16
 8 89120 IR001    16
 8 89125 IR001    16
 8 89130 IR001    16
 8 89135 IR001    16
 8 89140 IR001    16
 8 89145 IR001    16
 8 89150 IR001    16
 8 89155 IR001    16
 8 89160 IR001    16
 8 89165 IR001    16
 8 89170 IR001    16
 8 89175 IR001    16
 8 89180 IR001    16
 8 89185 IR001    16
 8 89190 IR001    16
 8 89195 IR001    16
 8 89200 IR001    16
 8 89205 IR001    16
 8 89210 IR001    16
 8 89215 IR001    16
 8 89220 IR001    16
 8 89225 IR001    16
 8 89230 IR001    16
 8 89235 IR001    16
 8 89240 IR001    16
 8 89245 IR001    16
 8 89250 IR001    16
 8 89255 IR001    16
 8 89260 IR001    16
 8 89265 IR001    16
 8 89270 IR001    16
 8 89275 IR001    16
 8 89280 IR001    16
 8 89285 IR001    16
 8 89290 IR001    16
 8 89295 IR001    16
 8 89300 IR001    16
 8 89305 IR001    16
 8 89310 IR001    16
 8 89315 IR001    16
 8 89320 IR001    16
 8 89325 IR001    16
 8 89330 IR001    16
 8 89335 IR001    16
 8 89340 IR001    16
 8 89345 IR001    16
 8 89350 IR001    16
 8 89355 IR001    16
 8 89360 IR001    16
 8 89365 IR001    16

@I  EFIR  IDEP  ITHR  IEPT  IOFF  IAME  IAMT IRNAME
 9     1   -99   -99   -99   -99   -99   -99 -99
@I IDATE  IROP IRVAL
 9 89030 IR001    18
 9 89035 IR001    18
 9 89040 IR001    18
 9 89045 IR001    18
 9 89050 IR001    18
 9 89055 IR001    18
 9 89060 IR001    18
 9 89065 IR001    18
 9 89070 IR001    18
 9 89075 IR001    18
 9 89080 IR001    18
 9 89085 IR001    18
 9 89090 IR001    18
 9 89095 IR001    18
 9 89100 IR001    18
 9 89105 IR001    18
 9 89110 IR001    18
 9 89115 IR001    18
 9 89120 IR001    18
 9 89125 IR001    18
 9 89130 IR001    18
 9 89135 IR001    18
 9 89140 IR001    18
 9 89145 IR001    18
 9 89150 IR001    18
 9 89155 IR001    18
 9 89160 IR001    18
 9 89165 IR001    18
 9 89170 IR001    18
 9 89175 IR001    18
 9 89180 IR001    18
 9 89185 IR001    18
 9 89190 IR001    18
 9 89195 IR001    18
 9 89200 IR001    18
 9 89205 IR001    18
 9 89210 IR001    18